#	Name: ASD08390012
#	Creating user name:	WinNT
#	Creation time:	15. 06. 2019 21:19

#	Modifying user name:	WinNT
#	Modification time:	15. 06. 2019 21:19

#	Program:	/corina/corina34_cracker 3.40 0067  02.08.2006

@<TRIPOS>MOLECULE
ASD08390012
  54   57    0    0    0
SMALL
NO_CHARGES


@<TRIPOS>ATOM
   1 N1             0.0723     1.7340    -0.3913 N.2     
   2 C2            -0.0171     0.2690    -0.3219 C.3     
   3 C3             1.3552    -0.1641     0.2309 C.3     
   4 N4             2.0655     1.1131     0.4110 N.pl3   
   5 C5             1.2311     2.1289     0.0218 C.2     
   6 C6             1.1967    -0.8750     1.5502 C.ar    
   7 C7             1.2334    -2.2563     1.5986 C.ar    
   8 C8             1.0884    -2.9103     2.8068 C.ar    
   9 C9             0.9057    -2.1799     3.9721 C.ar    
  10 C10            0.8692    -0.7940     3.9207 C.ar    
  11 C11            1.0204    -0.1446     2.7109 C.ar    
  12 O12            0.7623    -2.8210     5.1617 O.3     
  13 C13            0.5779    -2.0050     6.3203 C.3     
  14 C14            1.6241     3.5558     0.0706 C.ar    
  15 C15            1.3110     4.4049    -0.9905 C.ar    
  16 C16            1.6794     5.7337    -0.9390 C.ar    
  17 C17            2.3584     6.2239     0.1621 C.ar    
  18 C18            2.6718     5.3866     1.2178 C.ar    
  19 C19            2.3036     4.0572     1.1804 C.ar    
  20 C20            4.4110     1.0964    -0.2117 C.ar    
  21 C21            4.7408     2.1732    -1.0133 C.ar    
  22 C22            5.6446     2.0141    -2.0471 C.ar    
  23 C23            6.2188     0.7782    -2.2791 C.ar    
  24 C24            5.8896    -0.2984    -1.4769 C.ar    
  25 C25            4.9848    -0.1396    -0.4440 C.ar    
  26 C26            3.4304     1.2713     0.9192 C.3     
  27 C27           -1.1369    -0.1552     0.6305 C.3     
  28 C28           -0.2442    -0.3117    -1.6939 C.2     
  29 O29            0.2720    -1.3606    -1.9989 O.2     
  30 O30           -1.0201     0.3363    -2.5770 O.3     
  31 H31            1.8771    -0.7963    -0.4875 H       
  32 H32            1.3753    -2.8244     0.6912 H       
  33 H33            1.1168    -3.9893     2.8441 H       
  34 H34            0.7271    -0.2232     4.8265 H       
  35 H35            0.9969     0.9344     2.6710 H       
  36 H36            0.4769    -2.6406     7.2000 H       
  37 H37            1.4394    -1.3486     6.4433 H       
  38 H38           -0.3232    -1.4034     6.2013 H       
  39 H39            0.7816     4.0231    -1.8509 H       
  40 H40            1.4376     6.3922    -1.7601 H       
  41 H41            2.6453     7.2645     0.1976 H       
  42 H42            3.2020     5.7751     2.0747 H       
  43 H43            2.5449     3.4055     2.0071 H       
  44 H44            4.2922     3.1388    -0.8321 H       
  45 H45            5.9018     2.8552    -2.6738 H       
  46 H46            6.9244     0.6537    -3.0872 H       
  47 H47            6.3377    -1.2641    -1.6586 H       
  48 H48            4.7271    -0.9809     0.1822 H       
  49 H49            3.5451     2.2665     1.3488 H       
  50 H50            3.6221     0.5204     1.6857 H       
  51 H51           -2.0909     0.2191     0.2592 H       
  52 H52           -1.1714    -1.2431     0.6890 H       
  53 H53           -0.9461     0.2561     1.6217 H       
  54 H54           -1.1363    -0.0753    -3.4442 H       
@<TRIPOS>BOND
   1    1    2 1
   2    1    5 2
   3    2   27 1
   4    2    3 1
   5    2   28 1
   6    3    4 1
   7    3    6 1
   8    3   31 1
   9    4    5 1
  10    4   26 1
  11    5   14 1
  12    6    7 ar
  13    6   11 ar
  14    7    8 ar
  15    7   32 1
  16    8    9 ar
  17    8   33 1
  18    9   10 ar
  19    9   12 1
  20   10   11 ar
  21   10   34 1
  22   11   35 1
  23   12   13 1
  24   13   36 1
  25   13   37 1
  26   13   38 1
  27   14   15 ar
  28   14   19 ar
  29   15   16 ar
  30   15   39 1
  31   16   17 ar
  32   16   40 1
  33   17   18 ar
  34   17   41 1
  35   18   19 ar
  36   18   42 1
  37   19   43 1
  38   20   21 ar
  39   20   25 ar
  40   20   26 1
  41   21   22 ar
  42   21   44 1
  43   22   23 ar
  44   22   45 1
  45   23   24 ar
  46   23   46 1
  47   24   25 ar
  48   24   47 1
  49   25   48 1
  50   26   49 1
  51   26   50 1
  52   27   51 1
  53   27   52 1
  54   27   53 1
  55   28   29 2
  56   28   30 1
  57   30   54 1

#	End of record

