#	Name: ASD03331453
#	Creating user name:	WinNT
#	Creation time:	15. 06. 2019 20:39

#	Modifying user name:	WinNT
#	Modification time:	15. 06. 2019 20:39

#	Program:	/corina/corina34_cracker 3.40 0067  02.08.2006

@<TRIPOS>MOLECULE
ASD03331453
  53   55    0    0    0
SMALL
NO_CHARGES


@<TRIPOS>ATOM
   1 C1            -0.0180     1.4750     0.0102 C.ar    
   2 C2             0.0021    -0.0041     0.0020 C.2     
   3 N3            -1.0191    -0.8131     0.3844 N.pl3   
   4 C4            -0.6003    -2.1035     0.2289 C.2     
   5 C5             0.6674    -2.0586    -0.2472 C.2     
   6 N6             1.0097    -0.7562    -0.3820 N.2     
   7 C7             1.5180    -3.2188    -0.5662 C.2     
   8 N8             2.7672    -3.0298    -1.0355 N.am    
   9 C9            -0.9799     2.1577     0.7551 C.ar    
  10 O10            1.0929    -4.3470    -0.4059 O.2     
  11 C11            3.6130    -4.1832    -1.3525 C.3     
  12 C12            3.3095    -4.6629    -2.7733 C.3     
  13 C13            5.0631    -3.7846    -1.2560 C.2     
  14 C14            1.8725    -5.1842    -2.8396 C.3     
  15 C15           -2.3517    -0.4580     0.8804 C.3     
  16 C16           -3.2455    -1.7011     0.7738 C.3     
  17 O17           -2.5732    -2.8322     1.3340 O.3     
  18 C18           -1.4605    -3.2972     0.5553 C.3     
  19 O19            5.3608    -2.6488    -0.9522 O.2     
  20 N20            6.0291    -4.6902    -1.5072 N.am    
  21 C21            7.4388    -4.3026    -1.4133 C.3     
  22 C22           -0.9941     3.5389     0.7590 C.ar    
  23 C23           -0.0536     4.2460     0.0232 C.ar    
  24 C24            0.9026     3.5709    -0.7179 C.ar    
  25 C25            0.9288     2.1919    -0.7227 C.ar    
  26 F26           -0.0709     5.5968     0.0292 F       
  27 F27           -1.9246     4.2022     1.4797 F       
  28 C28            1.5280    -5.5476    -4.2853 C.3     
  29 C29            1.7393    -6.4261    -1.9559 C.3     
  30 H30            3.1063    -2.1300    -1.1633 H       
  31 H31           -1.7123     1.6074     1.3272 H       
  32 H32            3.4096    -4.9880    -0.6461 H       
  33 H33            3.4274    -3.8330    -3.4700 H       
  34 H34            3.9990    -5.4633    -3.0417 H       
  35 H35            1.1892    -4.4120    -2.4863 H       
  36 H36           -2.2849    -0.1406     1.9210 H       
  37 H37           -2.7674     0.3475     0.2750 H       
  38 H38           -4.1746    -1.5268     1.3165 H       
  39 H39           -3.4709    -1.8963    -0.2746 H       
  40 H40           -1.8200    -3.7564    -0.3656 H       
  41 H41           -0.8842    -4.0221     1.1302 H       
  42 H42            5.7910    -5.5986    -1.7501 H       
  43 H43            8.0680    -5.1608    -1.6492 H       
  44 H44            7.6422    -3.4978    -2.1197 H       
  45 H45            7.6550    -3.9608    -0.4011 H       
  46 H46            1.6319     4.1257    -1.2895 H       
  47 H47            1.6750     1.6673    -1.3010 H       
  48 H48            2.2113    -6.3199    -4.6385 H       
  49 H49            0.5043    -5.9190    -4.3325 H       
  50 H50            1.6229    -4.6629    -4.9148 H       
  51 H51            2.4226    -7.1984    -2.3092 H       
  52 H52            1.9848    -6.1672    -0.9260 H       
  53 H53            0.7156    -6.7975    -2.0031 H       
@<TRIPOS>BOND
   1    1    2 1
   2    1    9 ar
   3    1   25 ar
   4    2    3 1
   5    2    6 2
   6    3    4 1
   7    3   15 1
   8    4    5 2
   9    4   18 1
  10    5    6 1
  11    5    7 1
  12    7    8 am
  13    7   10 2
  14    8   11 1
  15    8   30 1
  16    9   22 ar
  17    9   31 1
  18   11   12 1
  19   11   13 1
  20   11   32 1
  21   12   14 1
  22   12   33 1
  23   12   34 1
  24   13   19 2
  25   13   20 am
  26   14   28 1
  27   14   29 1
  28   14   35 1
  29   15   16 1
  30   15   36 1
  31   15   37 1
  32   16   17 1
  33   16   38 1
  34   16   39 1
  35   17   18 1
  36   18   40 1
  37   18   41 1
  38   20   21 1
  39   20   42 1
  40   21   43 1
  41   21   44 1
  42   21   45 1
  43   22   23 ar
  44   22   27 1
  45   23   24 ar
  46   23   26 1
  47   24   25 ar
  48   24   46 1
  49   25   47 1
  50   28   48 1
  51   28   49 1
  52   28   50 1
  53   29   51 1
  54   29   52 1
  55   29   53 1

#	End of record

