#	Name: ASD00311419
#	Creating user name:	WinNT
#	Creation time:	15. 06. 2019 18:34

#	Modifying user name:	WinNT
#	Modification time:	15. 06. 2019 18:34

#	Program:	/corina/corina34_cracker 3.40 0067  02.08.2006

@<TRIPOS>MOLECULE
ASD00311419
  44   47    0    0    0
SMALL
NO_CHARGES


@<TRIPOS>ATOM
   1 C1            -0.0167     1.3777     0.0096 C.2     
   2 C2             0.0021    -0.0041     0.0020 C.2     
   3 C3             1.2585    -0.6766    -0.0140 C.2     
   4 C4             2.4315     0.0673    -0.0217 C.2     
   5 C5             2.3576     1.4751    -0.0134 C.2     
   6 N6             1.1650     2.0903     0.0022 N.am    
   7 C7            -1.3434    -0.5753     0.0123 C.2     
   8 C8            -2.3230     0.3265     0.0268 C.2     
   9 S9            -1.6792     1.9564     0.0358 S.3     
  10 O10            3.3825     2.1371    -0.0196 O.2     
  11 C11            3.7475    -0.6121    -0.0379 C.ar    
  12 C12            4.5929    -0.4748    -1.1387 C.ar    
  13 C13            5.8177    -1.1103    -1.1479 C.ar    
  14 C14            6.2075    -1.8827    -0.0684 C.ar    
  15 C15            5.3734    -2.0227     1.0264 C.ar    
  16 C16            4.1488    -1.3872     1.0501 C.ar    
  17 C17           -1.5961    -2.0357     0.0065 C.ar    
  18 C18           -2.2068    -2.6433     1.1032 C.ar    
  19 C19           -2.4411    -4.0064     1.0934 C.ar    
  20 C20           -2.0673    -4.7690    -0.0103 C.ar    
  21 C21           -1.4604    -4.1645    -1.1000 C.ar    
  22 C22           -1.2289    -2.8034    -1.0976 C.ar    
  23 O23           -2.2978    -6.1095    -0.0188 O.3     
  24 C24           -1.8890    -6.8307    -1.1828 C.3     
  25 O25           -3.0361    -4.6019     2.1615 O.3     
  26 C26           -3.3925    -3.7590     3.2590 C.3     
  27 O27            1.3084    -2.0292    -0.0213 O.3     
  28 Cl28          -4.0151    -0.0614     0.0407 Cl      
  29 H29            1.1329     3.0598     0.0077 H       
  30 H30            4.2894     0.1273    -1.9823 H       
  31 H31            6.4732    -1.0047    -1.9997 H       
  32 H32            7.1668    -2.3787    -0.0805 H       
  33 H33            5.6831    -2.6273     1.8660 H       
  34 H34            3.5006    -1.4933     1.9073 H       
  35 H35           -2.4959    -2.0508     1.9586 H       
  36 H36           -1.1714    -4.7588    -1.9542 H       
  37 H37           -0.7599    -2.3340    -1.9497 H       
  38 H38           -2.4111    -6.4382    -2.0554 H       
  39 H39           -0.8138    -6.7175    -1.3214 H       
  40 H40           -2.1303    -7.8865    -1.0594 H       
  41 H41           -3.8571    -4.3586     4.0418 H       
  42 H42           -2.4974    -3.2776     3.6530 H       
  43 H43           -4.0948    -2.9977     2.9194 H       
  44 H44            2.2056    -2.3896    -0.0322 H       
@<TRIPOS>BOND
   1    1    2 2
   2    1    6 1
   3    1    9 1
   4    2    3 1
   5    2    7 1
   6    3    4 2
   7    3   27 1
   8    4    5 1
   9    4   11 1
  10    5    6 am
  11    5   10 2
  12    6   29 1
  13    7    8 2
  14    7   17 1
  15    8    9 1
  16    8   28 1
  17   11   12 ar
  18   11   16 ar
  19   12   13 ar
  20   12   30 1
  21   13   14 ar
  22   13   31 1
  23   14   15 ar
  24   14   32 1
  25   15   16 ar
  26   15   33 1
  27   16   34 1
  28   17   18 ar
  29   17   22 ar
  30   18   19 ar
  31   18   35 1
  32   19   20 ar
  33   19   25 1
  34   20   21 ar
  35   20   23 1
  36   21   22 ar
  37   21   36 1
  38   22   37 1
  39   23   24 1
  40   24   38 1
  41   24   39 1
  42   24   40 1
  43   25   26 1
  44   26   41 1
  45   26   42 1
  46   26   43 1
  47   27   44 1

#	End of record

