#	Name: ASD01680114
#	Creating user name:	WinNT
#	Creation time:	15. 06. 2019 19:22

#	Modifying user name:	WinNT
#	Modification time:	15. 06. 2019 19:22

#	Program:	/corina/corina34_cracker 3.40 0067  02.08.2006

@<TRIPOS>MOLECULE
ASD01680114
  74   76    0    0    0
SMALL
NO_CHARGES


@<TRIPOS>ATOM
   1 C1            -1.7200     1.1706    -0.8796 C.2     
   2 C2            -1.5214    -0.3202    -0.9743 C.3     
   3 C3            -1.9542    -0.8055    -2.3592 C.3     
   4 O4            -0.7766     1.8930    -0.6601 O.2     
   5 O5            -2.9439     1.6965    -1.0446 O.3     
   6 N6            -0.1068    -0.6387    -0.7653 N.am    
   7 S7             0.4330    -1.0607     0.7423 S.o2    
   8 O8             1.8202    -1.3379     0.6088 O.2     
   9 O9            -0.0821    -0.0870     1.6400 O.2     
  10 C10           -0.3408    -2.5861     1.1653 C.ar    
  11 C11           -1.4622    -2.5915     1.9737 C.ar    
  12 C12           -2.0692    -3.7882     2.3056 C.ar    
  13 C13           -1.5552    -4.9796     1.8288 C.ar    
  14 C14           -0.4343    -4.9741     1.0198 C.ar    
  15 C15            0.1702    -3.7771     0.6843 C.ar    
  16 C16            1.3890    -3.7708    -0.2019 C.3     
  17 C17           -2.2164    -6.2843     2.1915 C.3     
  18 C18           -2.0226    -1.2927     2.4934 C.3     
  19 N19           -1.6507    -2.2324    -2.4936 N.am    
  20 C20           -1.9468    -2.8794    -3.6383 C.2     
  21 O21           -2.4645    -2.2804    -4.5570 O.2     
  22 C22           -1.6345    -4.3472    -3.7765 C.3     
  23 O23           -2.0388    -4.8004    -5.0701 O.3     
  24 N24           -3.9306    -6.9501    -6.0536 N.am    
  25 C25           -3.0090    -7.0501    -4.9073 C.3     
  26 C26           -1.7858    -6.1870    -5.3054 C.3     
  27 C27           -1.6773    -6.4825    -6.8247 C.3     
  28 C28           -3.1526    -6.6190    -7.2565 C.3     
  29 C29           -3.2909    -7.7386    -8.2900 C.3     
  30 N30           -2.5983    -7.3539    -9.5223 N.pl3   
  31 C31           -2.4985    -8.2568   -10.5744 C.ar    
  32 C32           -3.0587    -9.5244   -10.4506 C.ar    
  33 C33           -2.9520   -10.4127   -11.5052 C.ar    
  34 C34           -2.2862   -10.0022   -12.6528 C.ar    
  35 C35           -1.7544    -8.7297   -12.7074 C.ar    
  36 N36           -1.8760    -7.9011   -11.6875 N.ar    
  37 C37           -5.2645    -7.1370    -6.0077 C.2     
  38 O38           -5.9155    -7.1147    -7.0307 O.2     
  39 C39           -5.9471    -7.3737    -4.6852 C.3     
  40 H40           -2.1220    -0.8159    -0.2115 H       
  41 H41           -3.0261    -0.6490    -2.4804 H       
  42 H42           -1.4166    -0.2459    -3.1247 H       
  43 H43           -3.0217     2.6579    -0.9750 H       
  44 H44            0.5136    -0.6025    -1.5100 H       
  45 H45           -2.9449    -3.7925     2.9377 H       
  46 H46           -0.0325    -5.9049     0.6476 H       
  47 H47            2.2869    -3.7382     0.4153 H       
  48 H48            1.3997    -4.6743    -0.8115 H       
  49 H49            1.3621    -2.8952    -0.8505 H       
  50 H50           -2.9762    -6.5255     1.4481 H       
  51 H51           -1.4679    -7.0764     2.2162 H       
  52 H52           -2.6832    -6.1948     3.1724 H       
  53 H53           -2.5147    -0.7582     1.6808 H       
  54 H54           -2.7454    -1.4989     3.2828 H       
  55 H55           -1.2132    -0.6815     2.8925 H       
  56 H56           -1.2366    -2.7114    -1.7589 H       
  57 H57           -0.5627    -4.5036    -3.6553 H       
  58 H58           -2.1722    -4.9067    -3.0111 H       
  59 H59           -3.4779    -6.6514    -4.0077 H       
  60 H60           -2.7079    -8.0860    -4.7518 H       
  61 H61           -0.8892    -6.5133    -4.7784 H       
  62 H62           -1.1983    -5.6534    -7.3456 H       
  63 H63           -1.1368    -7.4128    -6.9991 H       
  64 H64           -3.5043    -5.6773    -7.6778 H       
  65 H65           -2.8492    -8.6538    -7.8956 H       
  66 H66           -4.3463    -7.9074    -8.5039 H       
  67 H67           -2.2093    -6.4690    -9.6040 H       
  68 H68           -3.5695    -9.8108    -9.5432 H       
  69 H69           -3.3767   -11.4034   -11.4377 H       
  70 H70           -2.1853   -10.6721   -13.4940 H       
  71 H71           -1.2359    -8.4065   -13.5979 H       
  72 H72           -6.2498    -6.4184    -4.2564 H       
  73 H73           -6.8270    -7.9988    -4.8372 H       
  74 H74           -5.2583    -7.8751    -4.0054 H       
@<TRIPOS>BOND
   1    1    2 1
   2    1    4 2
   3    1    5 1
   4    2    3 1
   5    2    6 1
   6    2   40 1
   7    3   19 1
   8    3   41 1
   9    3   42 1
  10    5   43 1
  11    6    7 am
  12    6   44 1
  13    7    8 2
  14    7    9 2
  15    7   10 1
  16   10   11 ar
  17   10   15 ar
  18   11   12 ar
  19   11   18 1
  20   12   13 ar
  21   12   45 1
  22   13   14 ar
  23   13   17 1
  24   14   15 ar
  25   14   46 1
  26   15   16 1
  27   16   47 1
  28   16   48 1
  29   16   49 1
  30   17   50 1
  31   17   51 1
  32   17   52 1
  33   18   53 1
  34   18   54 1
  35   18   55 1
  36   19   20 am
  37   19   56 1
  38   20   21 2
  39   20   22 1
  40   22   23 1
  41   22   57 1
  42   22   58 1
  43   23   26 1
  44   24   25 1
  45   24   28 1
  46   24   37 am
  47   25   26 1
  48   25   59 1
  49   25   60 1
  50   26   27 1
  51   26   61 1
  52   27   28 1
  53   27   62 1
  54   27   63 1
  55   28   29 1
  56   28   64 1
  57   29   30 1
  58   29   65 1
  59   29   66 1
  60   30   31 1
  61   30   67 1
  62   31   32 ar
  63   31   36 ar
  64   32   33 ar
  65   32   68 1
  66   33   34 ar
  67   33   69 1
  68   34   35 ar
  69   34   70 1
  70   35   36 ar
  71   35   71 1
  72   37   38 2
  73   37   39 1
  74   39   72 1
  75   39   73 1
  76   39   74 1

#	End of record

