#	Name: ASD01230609
#	Creating user name:	WinNT
#	Creation time:	15. 06. 2019 19:14

#	Modifying user name:	WinNT
#	Modification time:	15. 06. 2019 19:14

#	Program:	/corina/corina34_cracker 3.40 0067  02.08.2006

@<TRIPOS>MOLECULE
ASD01230609
  44   47    0    0    0
SMALL
NO_CHARGES


@<TRIPOS>ATOM
   1 S1            -0.0203     1.6432     0.0111 S.o2    
   2 N2             0.0021    -0.0041     0.0020 N.am    
   3 C3             1.0582    -0.7115     0.0766 C.2     
   4 N4             2.3239    -0.2014     0.2156 N.pl3   
   5 C5             2.5547     1.1284     0.7685 C.3     
   6 C6             1.7187     2.1517    -0.0028 C.3     
   7 C7             0.9691    -2.2282     0.0263 C.3     
   8 C8             2.0432    -2.7791     0.9676 C.3     
   9 C9             3.4382    -2.3754     0.5096 C.3     
  10 C10            3.4443    -1.0396    -0.2239 C.3     
  11 N11           -4.1623    -4.0248     1.4987 N.pl3   
  12 C12           -4.5275    -4.6623     0.3444 C.2     
  13 C13           -3.5414    -4.5686    -0.5617 C.2     
  14 C14           -2.4561    -3.8090     0.0635 C.ar    
  15 C15           -1.1930    -3.3923    -0.3614 C.ar    
  16 C16           -0.3942    -2.6772     0.4854 C.ar    
  17 C17           -0.8282    -2.3612     1.7658 C.ar    
  18 C18           -2.0703    -2.7627     2.2056 C.ar    
  19 C19           -2.9004    -3.4918     1.3600 C.ar    
  20 C20           -4.9928    -3.9196     2.7010 C.3     
  21 C21           -5.7563    -2.5939     2.6790 C.3     
  22 O22           -0.6472     1.9881    -1.2166 O.2     
  23 O23           -0.6237     1.9749     1.2541 O.2     
  24 H24            2.2653     1.1405     1.8193 H       
  25 H25            3.6113     1.3809     0.6793 H       
  26 H26            2.0726     2.2083    -1.0322 H       
  27 H27            1.8152     3.1296     0.4690 H       
  28 H28            1.1525    -2.5769    -0.9900 H       
  29 H29            1.8709    -2.3915     1.9717 H       
  30 H30            1.9753    -3.8668     0.9892 H       
  31 H31            4.0887    -2.3026     1.3812 H       
  32 H32            3.8279    -3.1455    -0.1561 H       
  33 H33            3.3602    -1.2183    -1.2958 H       
  34 H34            4.3816    -0.5221    -0.0194 H       
  35 H35           -5.4693    -5.1665     0.1859 H       
  36 H36           -3.5472    -4.9760    -1.5619 H       
  37 H37           -0.8483    -3.6351    -1.3557 H       
  38 H38           -0.1854    -1.7953     2.4237 H       
  39 H39           -2.3988    -2.5122     3.2035 H       
  40 H40           -5.7020    -4.7469     2.7262 H       
  41 H41           -4.3576    -3.9584     3.5859 H       
  42 H42           -6.3915    -2.5550     1.7941 H       
  43 H43           -6.3742    -2.5156     3.5735 H       
  44 H44           -5.0471    -1.7665     2.6538 H       
@<TRIPOS>BOND
   1    1    2 am
   2    1    6 1
   3    1   22 2
   4    1   23 2
   5    2    3 2
   6    3    4 1
   7    3    7 1
   8    4    5 1
   9    4   10 1
  10    5    6 1
  11    5   24 1
  12    5   25 1
  13    6   26 1
  14    6   27 1
  15    7    8 1
  16    7   16 1
  17    7   28 1
  18    8    9 1
  19    8   29 1
  20    8   30 1
  21    9   10 1
  22    9   31 1
  23    9   32 1
  24   10   33 1
  25   10   34 1
  26   11   12 1
  27   11   19 1
  28   11   20 1
  29   12   13 2
  30   12   35 1
  31   13   14 1
  32   13   36 1
  33   14   15 ar
  34   14   19 ar
  35   15   16 ar
  36   15   37 1
  37   16   17 ar
  38   17   18 ar
  39   17   38 1
  40   18   19 ar
  41   18   39 1
  42   20   21 1
  43   20   40 1
  44   20   41 1
  45   21   42 1
  46   21   43 1
  47   21   44 1

#	End of record

