#	Name: ASD01411228
#	Creating user name:	WinNT
#	Creation time:	15. 06. 2019 19:19

#	Modifying user name:	WinNT
#	Modification time:	15. 06. 2019 19:19

#	Program:	/corina/corina34_cracker 3.40 0067  02.08.2006

@<TRIPOS>MOLECULE
ASD01411228
  70   73    0    0    0
SMALL
NO_CHARGES


@<TRIPOS>ATOM
   1 C1             2.4041     4.6726    -2.2099 C.ar    
   2 C2             3.3867     4.6404    -3.1897 C.ar    
   3 C3             4.4380     3.7538    -3.0634 C.ar    
   4 N4             4.5171     2.9419    -2.0266 N.ar    
   5 C5             3.6004     2.9430    -1.0726 C.ar    
   6 C6             2.5156     3.8082    -1.1346 C.ar    
   7 C7             6.0241     1.5810     0.3121 C.ar    
   8 C8             4.7379     1.1878    -0.0488 C.ar    
   9 O9             3.7209     2.0906    -0.0241 O.3     
  10 C10            7.0644     0.6704     0.2897 C.ar    
  11 C11            6.8321    -0.6423    -0.0931 C.ar    
  12 C12            5.5374    -1.0439    -0.4578 C.ar    
  13 C13            4.4917    -0.1162    -0.4321 C.ar    
  14 F14            6.2578     2.8596     0.6804 F       
  15 C15            3.3068     5.5626    -4.3788 C.3     
  16 N16            7.8812    -1.5600    -0.1160 N.am    
  17 C17            8.3112    -2.1208     1.0317 C.2     
  18 C18            7.5817    -1.8498     2.3223 C.3     
  19 O19            9.2851    -2.8435     1.0258 O.2     
  20 C20            8.4097    -2.3762     3.4963 C.3     
  21 C21            6.2242    -2.5552     2.2987 C.3     
  22 C22            6.4353    -4.0621     2.1388 C.3     
  23 C23            7.2632    -4.5885     3.3129 C.3     
  24 C24            8.6207    -3.8831     3.3365 C.3     
  25 C25            7.4743    -6.0954     3.1531 C.3     
  26 C26            8.5164    -1.9149    -1.3875 C.3     
  27 C27            9.6003    -0.8876    -1.7203 C.3     
  28 N28            4.0017     6.8155    -4.0727 N.pl3   
  29 N29            5.2493     7.0325    -4.2967 N.2     
  30 N30            3.4460     7.8499    -3.5484 N.2     
  31 C31            4.3523     8.7911    -3.4107 C.2     
  32 C32            5.5423     8.2517    -3.9046 C.2     
  33 C33           11.7729    -0.1360    -1.0420 C.3     
  34 O34           10.6535    -0.9778    -0.7587 O.3     
  35 C35            1.4741     3.8063    -0.0453 C.3     
  36 F36            0.4927     4.7597    -0.3368 F       
  37 F37            0.8850     2.5399     0.0343 F       
  38 F38            2.0779     4.1175     1.1777 F       
  39 C39            5.2818    -2.4357    -0.8655 C.2     
  40 O40            6.1769    -3.2565    -0.8196 O.2     
  41 O41            4.0552    -2.7992    -1.2895 O.3     
  42 H42            1.5739     5.3595    -2.2826 H       
  43 H43            5.2049     3.7246    -3.8232 H       
  44 H44            8.0596     0.9820     0.5704 H       
  45 H45            3.4932    -0.4188    -0.7112 H       
  46 H46            3.7771     5.0872    -5.2396 H       
  47 H47            2.2617     5.7730    -4.6060 H       
  48 H48            7.4314    -0.7762     2.4361 H       
  49 H49            9.3767    -1.8736     3.5131 H       
  50 H50            7.8821    -2.1802     4.4297 H       
  51 H51            5.6966    -2.3592     3.2321 H       
  52 H52            5.6344    -2.1802     1.4623 H       
  53 H53            5.4682    -4.5647     2.1220 H       
  54 H54            6.9629    -4.2581     1.2054 H       
  55 H55            6.7356    -4.3925     4.2463 H       
  56 H56            9.1483    -4.0791     2.4030 H       
  57 H57            9.2105    -4.2581     4.1729 H       
  58 H58            8.0019    -6.2914     2.2196 H       
  59 H59            8.0641    -6.4704     3.9895 H       
  60 H60            6.5072    -6.5980     3.1362 H       
  61 H61            8.9665    -2.9042    -1.3052 H       
  62 H62            7.7668    -1.9214    -2.1788 H       
  63 H63            9.9983    -1.0886    -2.7150 H       
  64 H64            9.1712     0.1141    -1.6963 H       
  65 H65            4.2062     9.7803    -3.0025 H       
  66 H66            6.5058     8.7371    -3.9533 H       
  67 H67           12.1415    -0.3471    -2.0458 H       
  68 H68           11.4671     0.9084    -0.9794 H       
  69 H69           12.5639    -0.3270    -0.3168 H       
  70 H70            3.9357    -3.7238    -1.5466 H       
@<TRIPOS>BOND
   1    1    2 ar
   2    1    6 ar
   3    1   42 1
   4    2    3 ar
   5    2   15 1
   6    3    4 ar
   7    3   43 1
   8    4    5 ar
   9    5    6 ar
  10    5    9 1
  11    6   35 1
  12    7    8 ar
  13    7   10 ar
  14    7   14 1
  15    8    9 1
  16    8   13 ar
  17   10   11 ar
  18   10   44 1
  19   11   12 ar
  20   11   16 1
  21   12   13 ar
  22   12   39 1
  23   13   45 1
  24   15   28 1
  25   15   46 1
  26   15   47 1
  27   16   17 am
  28   16   26 1
  29   17   19 2
  30   17   18 1
  31   18   20 1
  32   18   21 1
  33   18   48 1
  34   20   24 1
  35   20   49 1
  36   20   50 1
  37   21   22 1
  38   21   51 1
  39   21   52 1
  40   22   23 1
  41   22   53 1
  42   22   54 1
  43   23   24 1
  44   23   25 1
  45   23   55 1
  46   24   56 1
  47   24   57 1
  48   25   58 1
  49   25   59 1
  50   25   60 1
  51   26   27 1
  52   26   61 1
  53   26   62 1
  54   27   34 1
  55   27   63 1
  56   27   64 1
  57   28   29 1
  58   28   30 1
  59   29   32 2
  60   30   31 2
  61   31   32 1
  62   31   65 1
  63   32   66 1
  64   33   34 1
  65   33   67 1
  66   33   68 1
  67   33   69 1
  68   35   36 1
  69   35   37 1
  70   35   38 1
  71   39   40 2
  72   39   41 1
  73   41   70 1

#	End of record

