#	Name: ASD02590025
#	Creating user name:	WinNT
#	Creation time:	15. 06. 2019 20:25

#	Modifying user name:	WinNT
#	Modification time:	15. 06. 2019 20:25

#	Program:	/corina/corina34_cracker 3.40 0067  02.08.2006

@<TRIPOS>MOLECULE
ASD02590025
  27   29    0    0    0
SMALL
NO_CHARGES


@<TRIPOS>ATOM
   1 C1            -0.0167     1.3836     0.0096 C.ar    
   2 C2             0.0021    -0.0041     0.0020 C.ar    
   3 C3             1.1994    -0.6875    -0.0126 C.ar    
   4 C4             2.3965     0.0151    -0.0202 C.ar    
   5 C5             2.3847     1.4216    -0.0130 C.ar    
   6 C6             1.1596     2.0991     0.0023 C.ar    
   7 N7             3.7253    -0.3583    -0.0350 N.pl3   
   8 C8             4.4689     0.7911    -0.0364 C.2     
   9 N9             3.6751     1.8328    -0.0234 N.2     
  10 C10            5.9477     0.8481    -0.0504 C.ar    
  11 C11            6.5920     2.0843    -0.0504 C.ar    
  12 C12            7.9762     2.1212    -0.0636 C.ar    
  13 C13            8.6705     0.9205    -0.0764 C.ar    
  14 C14            7.9664    -0.2711    -0.0756 C.ar    
  15 N15            6.6502    -0.2787    -0.0574 N.ar    
  16 Cl16           1.1238     3.8347     0.0108 Cl      
  17 C17           -1.2959    -0.7697     0.0103 C.3     
  18 F18           -2.3676     0.1295     0.0253 F       
  19 F19           -1.3735    -1.5685    -1.1356 F       
  20 F20           -1.3517    -1.5807     1.1488 F       
  21 H21           -0.9617     1.9064     0.0169 H       
  22 H22            1.2059    -1.7674    -0.0178 H       
  23 H23            4.0681    -1.2657    -0.0424 H       
  24 H24            6.0198     3.0002    -0.0406 H       
  25 H25            8.5034     3.0639    -0.0643 H       
  26 H26            9.7505     0.9155    -0.0872 H       
  27 H27            8.5044    -1.2076    -0.0858 H       
@<TRIPOS>BOND
   1    1    2 ar
   2    1    6 ar
   3    1   21 1
   4    2    3 ar
   5    2   17 1
   6    3    4 ar
   7    3   22 1
   8    4    5 ar
   9    4    7 1
  10    5    6 ar
  11    5    9 1
  12    6   16 1
  13    7    8 1
  14    7   23 1
  15    8    9 2
  16    8   10 1
  17   10   11 ar
  18   10   15 ar
  19   11   12 ar
  20   11   24 1
  21   12   13 ar
  22   12   25 1
  23   13   14 ar
  24   13   26 1
  25   14   15 ar
  26   14   27 1
  27   17   18 1
  28   17   19 1
  29   17   20 1

#	End of record

