#	Name: ASD01816352
#	Creating user name:	WinNT
#	Creation time:	15. 06. 2019 19:35

#	Modifying user name:	WinNT
#	Modification time:	15. 06. 2019 19:35

#	Program:	/corina/corina34_cracker 3.40 0067  02.08.2006

@<TRIPOS>MOLECULE
ASD01816352
  50   55    0    0    0
SMALL
NO_CHARGES


@<TRIPOS>ATOM
   1 C1            -0.0167     1.3813     0.0096 C.ar    
   2 C2             0.0021    -0.0041     0.0020 C.ar    
   3 C3             1.1983    -0.6909    -0.0131 C.ar    
   4 C4             2.4015     0.0060    -0.0208 C.ar    
   5 C5             2.3790     1.4106    -0.0130 C.ar    
   6 C6             1.1663     2.0916     0.0022 C.ar    
   7 N7             3.6053    -0.6771    -0.0354 N.pl3   
   8 C8             4.7970    -0.0585    -0.0434 C.2     
   9 C9             4.9000     1.3103    -0.0375 C.2     
  10 C10            3.6670     2.1302    -0.0215 C.2     
  11 C11            5.9971     2.2730    -0.0433 C.2     
  12 N12            5.4245     3.4961    -0.0320 N.am    
  13 N13            4.0322     3.3799    -0.0190 N.2     
  14 O14            7.1912     2.0231    -0.0552 O.2     
  15 C15            3.5779    -2.1419    -0.0420 C.3     
  16 C16            3.5550    -2.6375    -1.4650 C.ar    
  17 C17            4.7426    -2.8867    -2.1280 C.ar    
  18 C18            4.7248    -3.3406    -3.4324 C.ar    
  19 C19            3.5129    -3.5469    -4.0776 C.ar    
  20 C20            2.3222    -3.2962    -3.4092 C.ar    
  21 C21            2.3463    -2.8474    -2.1031 C.ar    
  22 N22            3.4916    -4.0071    -5.4017 N.pl3   
  23 C23            2.3865    -4.2483    -6.1427 C.2     
  24 C24            2.7927    -4.6777    -7.3599 C.2     
  25 C25            4.1917    -4.7000    -7.3641 C.2     
  26 N26            4.6115    -4.2926    -6.1933 N.2     
  27 C27            6.1241     4.7045    -0.0325 C.ar    
  28 C28            7.5180     4.7239    -0.0510 C.ar    
  29 C29            5.4468     5.9230    -0.0202 C.ar    
  30 C30            6.1750     7.0947    -0.0216 C.ar    
  31 N31            7.4944     7.0713    -0.0347 N.ar    
  32 C32            8.1716     5.9388    -0.0512 C.ar    
  33 H33           -0.9602     1.9068     0.0169 H       
  34 H34           -0.9288    -0.5516     0.0083 H       
  35 H35            1.2004    -1.7709    -0.0185 H       
  36 H36            1.1506     3.1715     0.0077 H       
  37 H37            5.6983    -0.6535    -0.0544 H       
  38 H38            4.4658    -2.5241     0.4616 H       
  39 H39            2.6862    -2.4909     0.4787 H       
  40 H40            5.6849    -2.7260    -1.6255 H       
  41 H41            5.6526    -3.5344    -3.9500 H       
  42 H42            1.3780    -3.4554    -3.9086 H       
  43 H43            1.4204    -2.6522    -1.5826 H       
  44 H44            1.3634    -4.1216    -5.8206 H       
  45 H45            2.1504    -4.9544    -8.1830 H       
  46 H46            4.8175    -4.9978    -8.1924 H       
  47 H47            8.0783     3.8007    -0.0646 H       
  48 H48            4.3672     5.9493    -0.0102 H       
  49 H49            5.6587     8.0433    -0.0122 H       
  50 H50            9.2513     5.9633    -0.0612 H       
@<TRIPOS>BOND
   1    1    2 ar
   2    1    6 ar
   3    1   33 1
   4    2    3 ar
   5    2   34 1
   6    3    4 ar
   7    3   35 1
   8    4    5 ar
   9    4    7 1
  10    5    6 ar
  11    5   10 1
  12    6   36 1
  13    7    8 1
  14    7   15 1
  15    8    9 2
  16    8   37 1
  17    9   10 1
  18    9   11 1
  19   10   13 2
  20   11   12 am
  21   11   14 2
  22   12   13 1
  23   12   27 1
  24   15   16 1
  25   15   38 1
  26   15   39 1
  27   16   17 ar
  28   16   21 ar
  29   17   18 ar
  30   17   40 1
  31   18   19 ar
  32   18   41 1
  33   19   20 ar
  34   19   22 1
  35   20   21 ar
  36   20   42 1
  37   21   43 1
  38   22   23 1
  39   22   26 1
  40   23   24 2
  41   23   44 1
  42   24   25 1
  43   24   45 1
  44   25   26 2
  45   25   46 1
  46   27   29 ar
  47   27   28 ar
  48   28   32 ar
  49   28   47 1
  50   29   30 ar
  51   29   48 1
  52   30   31 ar
  53   30   49 1
  54   31   32 ar
  55   32   50 1

#	End of record

