#	Name: ASD01915363
#	Creating user name:	WinNT
#	Creation time:	15. 06. 2019 20:05

#	Modifying user name:	WinNT
#	Modification time:	15. 06. 2019 20:05

#	Program:	/corina/corina34_cracker 3.40 0067  02.08.2006

@<TRIPOS>MOLECULE
ASD01915363
  49   52    0    0    0
SMALL
NO_CHARGES


@<TRIPOS>ATOM
   1 C1            -0.1215     1.2085    -0.6430 C.ar    
   2 C2             0.0021    -0.0046     0.0545 C.ar    
   3 C3            -1.0871    -0.5260     0.7379 C.ar    
   4 C4            -2.2925     0.1415     0.7360 C.ar    
   5 C5            -2.4279     1.3503     0.0451 C.ar    
   6 C6            -1.3391     1.8871    -0.6398 C.ar    
   7 C7            -3.7224     2.0602     0.0461 C.2     
   8 O8            -3.7508     3.2725     0.1334 O.2     
   9 N9            -4.8727     1.3644    -0.0498 N.am    
  10 C10           -6.1746     2.0376     0.0721 C.3     
  11 C11           -7.0426     1.6396    -1.1264 C.3     
  12 N12           -7.1067     0.1747    -1.2155 N.3     
  13 C13           -5.7790    -0.4027    -1.4638 C.3     
  14 C14           -4.8593    -0.0874    -0.2852 C.3     
  15 C15           -8.0142    -0.2259    -2.1892 C.ar    
  16 C16            1.0007     1.7488    -1.3497 C.1     
  17 C17            1.9207     2.1918    -1.9290 C.1     
  18 C18            3.0428     2.7322    -2.6357 C.2     
  19 N19           -8.6769     0.6861    -2.8834 N.ar    
  20 C20           -9.5470     0.3482    -3.8164 C.ar    
  21 C21           -9.7985    -0.9783    -4.1028 C.ar    
  22 C22           -9.1241    -1.9663    -3.3972 C.ar    
  23 C23           -8.2138    -1.5818    -2.4296 C.ar    
  24 O24            1.1859    -0.6663     0.0596 O.3     
  25 C25            1.2398    -1.8938     0.7893 C.3     
  26 S26            3.0459     4.2362    -3.5531 S.3     
  27 C27            4.7402     3.9771    -3.9637 C.2     
  28 C28            5.1381     2.8310    -3.3989 C.2     
  29 N29            4.2305     2.1921    -2.6992 N.2     
  30 H30           -0.9898    -1.4589     1.2731 H       
  31 H31           -3.1362    -0.2703     1.2698 H       
  32 H32           -1.4411     2.8201    -1.1740 H       
  33 H33           -6.6621     1.7274     0.9963 H       
  34 H34           -6.0293     3.1179     0.0762 H       
  35 H35           -8.0478     2.0404    -0.9966 H       
  36 H36           -6.6059     2.0408    -2.0410 H       
  37 H37           -5.8678    -1.4830    -1.5786 H       
  38 H38           -5.3599     0.0269    -2.3736 H       
  39 H39           -3.8449    -0.4134    -0.5149 H       
  40 H40           -5.2186    -0.6003     0.6070 H       
  41 H41          -10.0692     1.1198    -4.3627 H       
  42 H42          -10.5128    -1.2453    -4.8675 H       
  43 H43           -9.3035    -3.0114    -3.6023 H       
  44 H44           -7.6716    -2.3239    -1.8624 H       
  45 H45            2.2405    -2.3189     0.7117 H       
  46 H46            1.0057    -1.7043     1.8368 H       
  47 H47            0.5144    -2.5944     0.3758 H       
  48 H48            5.3520     4.6308    -4.5676 H       
  49 H49            6.1451     2.4569    -3.5093 H       
@<TRIPOS>BOND
   1    1    2 ar
   2    1   16 1
   3    1    6 ar
   4    2    3 ar
   5    2   24 1
   6    3    4 ar
   7    3   30 1
   8    4    5 ar
   9    4   31 1
  10    5    6 ar
  11    5    7 1
  12    6   32 1
  13    7    8 2
  14    7    9 am
  15    9   10 1
  16    9   14 1
  17   10   11 1
  18   10   33 1
  19   10   34 1
  20   11   12 1
  21   11   35 1
  22   11   36 1
  23   12   13 1
  24   12   15 1
  25   13   14 1
  26   13   37 1
  27   13   38 1
  28   14   39 1
  29   14   40 1
  30   15   19 ar
  31   15   23 ar
  32   16   17 3
  33   17   18 1
  34   18   26 1
  35   18   29 2
  36   19   20 ar
  37   20   21 ar
  38   20   41 1
  39   21   22 ar
  40   21   42 1
  41   22   23 ar
  42   22   43 1
  43   23   44 1
  44   24   25 1
  45   25   45 1
  46   25   46 1
  47   25   47 1
  48   26   27 1
  49   27   28 2
  50   27   48 1
  51   28   29 1
  52   28   49 1

#	End of record

