#	Name: ASD01209242
#	Creating user name:	WinNT
#	Creation time:	15. 06. 2019 19:11

#	Modifying user name:	WinNT
#	Modification time:	15. 06. 2019 19:11

#	Program:	/corina/corina34_cracker 3.40 0067  02.08.2006

@<TRIPOS>MOLECULE
ASD01209242
  73   75    0    0    0
SMALL
NO_CHARGES


@<TRIPOS>ATOM
   1 C1            -1.5148     2.0647     0.2126 C.3     
   2 C2            -1.9087    -8.3941     4.5720 C.ar    
   3 C3            -1.8923    -9.6766     4.0437 C.ar    
   4 C4            -2.0667    -9.8722     2.6811 C.ar    
   5 C5            -2.2581    -8.7868     1.8426 C.ar    
   6 C6            -2.2753    -7.4949     2.3699 C.ar    
   7 C7            -2.1052    -7.3031     3.7412 C.ar    
   8 O8            -2.0493   -11.1308     2.1686 O.3     
   9 C9            -2.4787    -6.3331     1.4785 C.2     
  10 N10           -2.4949    -5.0861     1.9898 N.am    
  11 O11           -2.6312    -6.5024     0.2844 O.2     
  12 C12           -2.6876    -3.9853     1.1452 C.2     
  13 P13           -1.3982     0.2487     0.1034 P.3     
  14 O14           -0.4809    -0.2507     1.1520 O.2     
  15 C15           -3.0510    -0.4819     0.3436 C.3     
  16 C16           -2.8755    -4.0355    -0.2455 C.2     
  17 N17           -2.7298    -2.7272     1.5160 N.2     
  18 N18           -2.9396    -1.9423     0.3750 N.pl3   
  19 C19           -3.0253    -2.7671    -0.6900 C.2     
  20 O20           -1.7374    -8.2081     5.9073 O.3     
  21 C21           -1.6506    -6.8583     6.3684 C.3     
  22 C22           -0.8671    -6.8175     7.6820 C.3     
  23 C23           -1.7294   -12.1935     3.0688 C.3     
  24 C24           -1.1560   -13.3735     2.2816 C.3     
  25 C25            0.1555   -12.9713     1.6576 C.ar    
  26 C26            1.3368   -13.1583     2.3506 C.ar    
  27 C27            0.1776   -12.4205     0.3899 C.ar    
  28 C28            1.3805   -12.0516    -0.1825 C.ar    
  29 C29            2.5613   -12.2329     0.5130 C.ar    
  30 C30            2.5398   -12.7892     1.7783 C.ar    
  31 C31           -2.9956   -12.6379     3.8037 C.3     
  32 O32           -1.5960    -7.5162     8.6932 O.3     
  33 C33           -0.9480    -7.5378     9.9667 C.3     
  34 C34           -3.0589    -6.3059     6.5971 C.3     
  35 O35           -0.8333    -0.1666    -1.3459 O.3     
  36 C36            0.6937    -0.3786    -3.2071 C.3     
  37 C37            0.4835     0.1637    -1.7919 C.3     
  38 H38           -0.5265     2.5015     0.0690 H       
  39 H39           -2.1903     2.4325    -0.5597 H       
  40 H40           -1.8972     2.3458     1.1938 H       
  41 H41           -1.7429   -10.5253     4.6947 H       
  42 H42           -2.3934    -8.9399     0.7821 H       
  43 H43           -2.1182    -6.3050     4.1534 H       
  44 H44           -2.3732    -4.9510     2.9426 H       
  45 H45           -3.4708    -0.1292     1.2857 H       
  46 H46           -3.7025    -0.1848    -0.4783 H       
  47 H47           -2.8961    -4.9285    -0.8525 H       
  48 H48           -3.1872    -2.4674    -1.7149 H       
  49 H49           -1.1391    -6.2513     5.6213 H       
  50 H50            0.1040    -7.2918     7.5407 H       
  51 H51           -0.7242    -5.7811     7.9877 H       
  52 H52           -0.9919   -11.8469     3.7926 H       
  53 H53           -0.9949   -14.2155     2.9548 H       
  54 H54           -1.8571   -13.6632     1.4989 H       
  55 H55            1.3199   -13.5923     3.3394 H       
  56 H56           -0.7450   -12.2789    -0.1535 H       
  57 H57            1.3979   -11.6219    -1.1732 H       
  58 H58            3.5012   -11.9450     0.0656 H       
  59 H59            3.4623   -12.9309     2.3216 H       
  60 H60           -3.7332   -12.9845     3.0799 H       
  61 H61           -2.7516   -13.4485     4.4904 H       
  62 H62           -3.4041   -11.7972     4.3645 H       
  63 H63            0.0214    -8.0271     9.8728 H       
  64 H64           -0.8068    -6.5163    10.3198 H       
  65 H65           -1.5645    -8.0865    10.6787 H       
  66 H66           -2.9927    -5.2763     6.9488 H       
  67 H67           -3.6170    -6.3350     5.6613 H       
  68 H68           -3.5704    -6.9129     7.3442 H       
  69 H69            1.6981    -0.1267    -3.5473 H       
  70 H70            0.5726    -1.4619    -3.2028 H       
  71 H71           -0.0399     0.0663    -3.8794 H       
  72 H72            0.6046     1.2469    -1.7963 H       
  73 H73            1.2171    -0.2812    -1.1197 H       
@<TRIPOS>BOND
   1    1   13 1
   2    1   38 1
   3    1   39 1
   4    1   40 1
   5    2    3 ar
   6    2   20 1
   7    2    7 ar
   8    3    4 ar
   9    3   41 1
  10    4    5 ar
  11    4    8 1
  12    5    6 ar
  13    5   42 1
  14    6    7 ar
  15    6    9 1
  16    7   43 1
  17    8   23 1
  18    9   10 am
  19    9   11 2
  20   10   12 1
  21   10   44 1
  22   12   16 1
  23   12   17 2
  24   13   14 2
  25   13   35 1
  26   13   15 1
  27   15   18 1
  28   15   45 1
  29   15   46 1
  30   16   19 2
  31   16   47 1
  32   17   18 1
  33   18   19 1
  34   19   48 1
  35   20   21 1
  36   21   22 1
  37   21   34 1
  38   21   49 1
  39   22   32 1
  40   22   50 1
  41   22   51 1
  42   23   24 1
  43   23   31 1
  44   23   52 1
  45   24   25 1
  46   24   53 1
  47   24   54 1
  48   25   26 ar
  49   25   27 ar
  50   26   30 ar
  51   26   55 1
  52   27   28 ar
  53   27   56 1
  54   28   29 ar
  55   28   57 1
  56   29   30 ar
  57   29   58 1
  58   30   59 1
  59   31   60 1
  60   31   61 1
  61   31   62 1
  62   32   33 1
  63   33   63 1
  64   33   64 1
  65   33   65 1
  66   34   66 1
  67   34   67 1
  68   34   68 1
  69   35   37 1
  70   36   37 1
  71   36   69 1
  72   36   70 1
  73   36   71 1
  74   37   72 1
  75   37   73 1

#	End of record

