#	Name: ASD01028190
#	Creating user name:	WinNT
#	Creation time:	15. 06. 2019 18:56

#	Modifying user name:	WinNT
#	Modification time:	15. 06. 2019 18:56

#	Program:	/corina/corina34_cracker 3.40 0067  02.08.2006

@<TRIPOS>MOLECULE
ASD01028190
  45   49    0    0    0
SMALL
NO_CHARGES


@<TRIPOS>ATOM
   1 N1            -0.0157     1.3086     0.0092 N.ar    
   2 C2             0.0021    -0.0041     0.0020 C.ar    
   3 C3             1.1929    -0.7180    -0.0127 C.ar    
   4 C4             2.4010    -0.0409    -0.0206 C.ar    
   5 C5             2.3699     1.3759    -0.0131 C.ar    
   6 N6             3.4972     2.0878    -0.0196 N.ar    
   7 C7             3.4806     3.3981    -0.0124 C.ar    
   8 C8             2.2786     4.1130     0.0024 C.ar    
   9 C9             1.0780     3.4323     0.0097 C.ar    
  10 C10            1.1130     2.0256     0.0023 C.ar    
  11 N11            3.6056    -0.7290    -0.0349 N.pl3   
  12 C12            3.6123    -2.1940    -0.0419 C.3     
  13 C13            7.0124    -3.3794     0.5383 C.2     
  14 C14            8.0333    -3.7357     1.4404 C.2     
  15 C15            7.7958    -3.6544     2.7756 C.2     
  16 C16            6.5375    -3.2172     3.2457 C.2     
  17 N17            5.5831    -2.8836     2.4028 N.2     
  18 N18            5.7982    -2.9572     1.0251 N.pl3   
  19 N19            5.7562    -2.9371    -1.1226 N.2     
  20 N20            6.9292    -3.3436    -0.7816 N.2     
  21 C21            5.0353    -2.6897    -0.0573 C.2     
  22 S22            7.4097    -3.5248     6.0179 S.3     
  23 N23            6.3210    -3.1470     7.2636 N.2     
  24 C24            5.2101    -2.7596     6.7099 C.2     
  25 C25            5.1367    -2.7326     5.3392 C.2     
  26 C26            6.2896    -3.1334     4.7011 C.2     
  27 C27            4.0303    -2.3501     7.5533 C.3     
  28 O28            2.2928     5.4715     0.0099 O.3     
  29 C29            3.5727     6.1070     0.0021 C.3     
  30 H30           -0.9340    -0.5427     0.0081 H       
  31 H31            1.1771    -1.7979    -0.0177 H       
  32 H32            4.4160     3.9379    -0.0177 H       
  33 H33            0.1381     3.9642     0.0211 H       
  34 H34            4.4433    -0.2401    -0.0403 H       
  35 H35            3.1083    -2.5639     0.8510 H       
  36 H36            3.0920    -2.5555    -0.9289 H       
  37 H37            8.9932    -4.0700     1.0754 H       
  38 H38            8.5699    -3.9246     3.4785 H       
  39 H39            4.2498    -2.4232     4.8062 H       
  40 H40            4.0833    -1.2808     7.7577 H       
  41 H41            3.1068    -2.5725     7.0186 H       
  42 H42            4.0473    -2.9010     8.4937 H       
  43 H43            4.1345     5.8033     0.8854 H       
  44 H44            4.1186     5.8134    -0.8944 H       
  45 H45            3.4411     7.1890     0.0094 H       
@<TRIPOS>BOND
   1    1    2 ar
   2    1   10 ar
   3    2    3 ar
   4    2   30 1
   5    3    4 ar
   6    3   31 1
   7    4    5 ar
   8    4   11 1
   9    5    6 ar
  10    5   10 ar
  11    6    7 ar
  12    7    8 ar
  13    7   32 1
  14    8    9 ar
  15    8   28 1
  16    9   10 ar
  17    9   33 1
  18   11   12 1
  19   11   34 1
  20   12   21 1
  21   12   35 1
  22   12   36 1
  23   13   14 1
  24   13   18 1
  25   13   20 2
  26   14   15 2
  27   14   37 1
  28   15   16 1
  29   15   38 1
  30   16   17 2
  31   16   26 1
  32   17   18 1
  33   18   21 1
  34   19   20 1
  35   19   21 2
  36   22   23 1
  37   22   26 1
  38   23   24 2
  39   24   25 1
  40   24   27 1
  41   25   26 2
  42   25   39 1
  43   27   40 1
  44   27   41 1
  45   27   42 1
  46   28   29 1
  47   29   43 1
  48   29   44 1
  49   29   45 1

#	End of record

