#	Name: ASD06600059
#	Creating user name:	WinNT
#	Creation time:	15. 06. 2019 21:07

#	Modifying user name:	WinNT
#	Modification time:	15. 06. 2019 21:07

#	Program:	/corina/corina34_cracker 3.40 0067  02.08.2006

@<TRIPOS>MOLECULE
ASD06600059
 349  349    0    0    0
SMALL
NO_CHARGES


@<TRIPOS>ATOM
   1 C1           -10.5841     2.8339    -4.2777 C.2     
   2 O2           -11.5176     2.1640    -3.8896 O.2     
   3 N3            -9.1374     1.2305    -3.1637 N.3     
   4 C4            -9.1995     2.5805    -3.7395 C.3     
   5 C5            -8.8765     3.6122    -2.6568 C.3     
   6 C6            -7.4277     3.4338    -2.1984 C.3     
   7 C7            -7.1047     4.4654    -1.1157 C.3     
   8 N8            -5.7174     4.2947    -0.6768 N.pl3   
   9 C9            -5.1987     5.1149     0.2965 C.2     
  10 N10           -5.9088     6.1013     0.7630 N.2     
  11 N11           -3.9236     4.8926     0.7797 N.am    
  12 C12          -12.0272     4.6751    -7.0867 C.2     
  13 O13          -10.9383     4.9005    -7.5708 O.2     
  14 N14          -10.7841     3.8014    -5.1945 N.am    
  15 C15          -12.1292     4.0437    -5.7222 C.3     
  16 C16          -12.8848     4.9834    -4.7805 C.3     
  17 C17          -13.0974     4.2919    -3.4324 C.3     
  18 C18          -13.8417     5.2175    -2.5049 C.2     
  19 O19          -14.1697     6.3216    -2.8847 O.2     
  20 N20          -14.1427     4.8184    -1.2532 N.am    
  21 C21          -14.2971     5.3039    -9.8824 C.2     
  22 O22          -15.1835     4.6428    -9.3841 O.2     
  23 N23          -13.1461     4.9893    -7.7692 N.am    
  24 C24          -13.0471     5.6032    -9.0957 C.3     
  25 C25          -12.8889     7.1176    -8.9463 C.3     
  26 C26          -15.3380     5.5418   -13.3785 C.2     
  27 O27          -14.2146     5.8034   -13.7533 O.2     
  28 N28          -14.4300     5.7707   -11.1397 N.am    
  29 C29          -15.6452     5.4797   -11.9044 C.3     
  30 C30          -16.7216     6.5123   -11.5639 C.3     
  31 C31          -17.1230     6.3651   -10.0948 C.3     
  32 C32          -18.1832     7.3821    -9.7593 C.2     
  33 O33          -18.5789     8.1492   -10.6114 O.2     
  34 N34          -18.6917     7.4392    -8.5125 N.am    
  35 C35          -17.2737     5.6822   -16.4763 C.2     
  36 O36          -18.3188     5.8408   -15.8816 O.2     
  37 N37          -16.3116     5.3067   -14.2803 N.am    
  38 C38          -16.0130     5.3671   -15.7132 C.3     
  39 C39          -15.4604     4.0176   -16.1763 C.3     
  40 C40          -14.1166     3.7553   -15.4935 C.3     
  41 C41          -13.5641     2.4058   -15.9566 C.3     
  42 N42          -12.2773     2.1546   -15.3028 N.pl3   
  43 C43          -11.5872     0.9951   -15.5661 C.2     
  44 N44          -10.4424     0.7716   -14.9844 N.2     
  45 N45          -12.1046     0.0712   -16.4430 N.pl3   
  46 C46          -18.3435     5.5735   -19.9701 C.2     
  47 O47          -17.2482     5.3575   -20.4440 O.2     
  48 N48          -17.2399     5.7879   -17.8195 N.am    
  49 C49          -18.4655     6.0943   -18.5612 C.3     
  50 C50          -18.6766     7.6093   -18.5940 C.3     
  51 C51          -18.9638     8.1149   -17.1788 C.3     
  52 C52          -19.1748     9.6299   -17.2116 C.3     
  53 N53          -19.4498    10.1141   -15.8565 N.pl3   
  54 C54          -19.6740    11.4527   -15.6371 C.2     
  55 N55          -19.9186    11.8834   -14.4315 N.2     
  56 N56          -19.6402    12.3368   -16.6893 N.pl3   
  57 C57          -18.7866     5.9923   -22.9578 C.2     
  58 O58          -18.3168     6.9794   -22.4327 O.2     
  59 N59          -19.4515     5.3477   -20.7035 N.am    
  60 C60          -19.4760     4.9480   -22.1181 C.3     
  61 C61          -20.9571     4.8323   -22.5359 C.3     
  62 C62          -21.6830     5.7220   -21.4924 C.3     
  63 C63          -20.8395     5.4546   -20.2183 C.3     
  64 C64          -18.5505     6.7845   -26.5187 C.2     
  65 O65          -19.4031     5.9736   -26.8127 O.2     
  66 N66          -18.6921     5.8292   -24.2924 N.am    
  67 C67          -18.0220     6.8444   -25.1087 C.3     
  68 C68          -16.5152     6.5789   -25.1172 C.3     
  69 C69          -15.9571     6.7624   -23.7045 C.3     
  70 C70          -14.4730     6.5008   -23.7128 C.2     
  71 O71          -13.9165     6.1976   -24.7469 O.2     
  72 N72          -13.7641     6.6039   -22.5712 N.am    
  73 C73          -17.5543     8.1212   -29.7720 C.2     
  74 O74          -16.4918     8.5208   -29.3449 O.2     
  75 N75          -18.0758     7.6320   -27.4529 N.am    
  76 C76          -18.5897     7.5737   -28.8236 C.3     
  77 C77          -19.8672     8.4095   -28.9254 C.3     
  78 C78          -20.9586     7.7806   -28.0569 C.3     
  79 C79          -22.2361     8.6164   -28.1586 C.3     
  80 N80          -23.2811     8.0143   -27.3270 N.pl3   
  81 C81          -24.5256     8.5946   -27.2597 C.2     
  82 N82          -25.4554     8.0589   -26.5198 N.2     
  83 N83          -24.7894     9.7400   -27.9728 N.pl3   
  84 C84          -17.0169     8.1119   -33.3878 C.2     
  85 O85          -17.9212     7.3261   -33.5764 O.2     
  86 N86          -17.8091     8.1668   -31.0946 N.am    
  87 C87          -16.8026     8.6991   -32.0165 C.3     
  88 C88          -16.9312    10.2220   -32.0881 C.3     
  89 C89          -16.5914    10.8272   -30.7246 C.3     
  90 C90          -16.7181    12.3272   -30.7951 C.2     
  91 O91          -17.0476    12.8598   -31.8336 O.2     
  92 N92          -16.4651    13.0768   -29.7040 N.am    
  93 C93          -15.1134     7.9118   -36.5022 C.2     
  94 O94          -14.1126     8.3607   -35.9847 O.2     
  95 N95          -16.2034     8.4599   -34.4045 N.am    
  96 C96          -16.4117     7.8890   -35.7375 C.3     
  97 C97          -17.4598     8.7137   -36.4874 C.3     
  98 C98          -18.8098     8.5891   -35.7783 C.3     
  99 C99          -19.8579     9.4138   -36.5281 C.3     
 100 C100         -21.2078     9.2892   -35.8190 C.3     
 101 N101         -22.2141    10.0810   -36.5390 N.3     
 102 C102         -13.8211     6.3787   -39.5588 C.2     
 103 O103         -14.7932     5.6633   -39.6775 O.2     
 104 N104         -15.0643     7.4333   -37.7612 N.am    
 105 C105         -13.8022     7.4555   -38.5046 C.3     
 106 C106         -13.6278     8.8207   -39.1731 C.3     
 107 C107         -11.3625     4.7632   -41.7286 C.2     
 108 O108         -10.4311     5.3001   -41.1671 O.2     
 109 N109         -12.7578     6.2108   -40.3698 N.am    
 110 C110         -12.7762     5.1641   -41.3946 C.3     
 111 C111         -13.4668     5.6943   -42.6527 C.3     
 112 C112         -14.9458     5.9482   -42.3542 C.3     
 113 C113         -12.8022     7.0024   -43.0865 C.3     
 114 C114          -9.7042     2.0721   -43.5648 C.2     
 115 O115         -10.7128     1.3994   -43.6005 O.2     
 116 N116         -11.1330     3.8080   -42.6514 N.am    
 117 C117          -9.7596     3.4861   -43.0466 C.3     
 118 C118          -9.3058     4.4499   -44.1448 C.3     
 119 C119          -9.2425     5.8712   -43.5819 C.3     
 120 C120          -8.7887     6.8349   -44.6802 C.3     
 121 N121          -8.7280     8.1958   -44.1412 N.pl3   
 122 C122          -8.3424     9.2388   -44.9497 C.2     
 123 N123          -8.0308     9.0169   -46.1957 N.2     
 124 N124          -8.2856    10.5160   -44.4438 N.pl3   
 125 C125          -7.0849    -0.3628   -44.3219 C.2     
 126 O126          -6.1738     0.3848   -44.0357 O.2     
 127 N127          -8.5340     1.5550   -43.9886 N.am    
 128 C128          -8.4802     0.1804   -44.4923 C.3     
 129 C129          -8.8555     0.1657   -45.9755 C.3     
 130 C130         -10.3257     0.5590   -46.1335 C.3     
 131 C131          -7.9766     1.1623   -46.7339 C.3     
 132 C132          -5.3192    -3.4882   -45.0128 C.2     
 133 O133          -6.2032    -3.8923   -45.7382 O.2     
 134 N134          -6.8495    -1.6795   -44.4875 N.am    
 135 C135          -5.5176    -2.2255   -44.2146 C.3     
 136 C136          -5.3912    -2.5400   -42.7227 C.3     
 137 C137          -3.4834    -5.0450   -47.0802 C.2     
 138 O138          -3.1085    -3.9222   -47.3225 O.2     
 139 N139          -4.1594    -4.1685   -44.9206 N.am    
 140 C140          -3.9665    -5.3960   -45.6966 C.3     
 141 C141          -2.9281    -6.2800   -45.0029 C.3     
 142 C142          -3.4332    -6.6632   -43.6104 C.3     
 143 C143          -2.4391    -7.6231   -42.9536 C.3     
 144 C144          -1.6101    -5.5137   -44.8742 C.3     
 145 O145          -3.4695    -5.9797   -48.0435 O.3     
 146 C146          -3.2323     3.8060     0.3824 C.2     
 147 O147          -3.6960     3.0669    -0.4596 O.2     
 148 C148          11.6631    -7.5528     0.9243 C.3     
 149 C149          10.2932    -7.2519     0.3129 C.3     
 150 C150           9.7279    -5.9725     0.9329 C.3     
 151 C151           8.3581    -5.6715     0.3215 C.3     
 152 C152           7.7928    -4.3921     0.9415 C.3     
 153 C153           6.4229    -4.0912     0.3301 C.3     
 154 C154           5.8576    -2.8118     0.9502 C.3     
 155 C155           4.4878    -2.5109     0.3388 C.3     
 156 C156           3.9225    -1.2314     0.9588 C.3     
 157 C157           2.5526    -0.9305     0.3474 C.3     
 158 C158           1.9873     0.3489     0.9674 C.3     
 159 C159           0.6174     0.6498     0.3560 C.3     
 160 C160           0.0521     1.9292     0.9760 C.3     
 161 C161          -1.3177     2.2302     0.3646 C.3     
 162 C162          -1.8830     3.5096     0.9846 C.3     
 163 H163          -9.8011     1.1277    -2.4107 H       
 164 H164          -9.2836     0.5278    -3.8729 H       
 165 H165          -8.4742     2.6640    -4.5489 H       
 166 H166          -9.0090     4.6160    -3.0603 H       
 167 H167          -9.5460     3.4703    -1.8085 H       
 168 H168          -7.2952     2.4300    -1.7949 H       
 169 H169          -6.7581     3.5757    -3.0468 H       
 170 H170          -7.2372     5.4693    -1.5192 H       
 171 H171          -7.7742     4.3236    -0.2673 H       
 172 H172          -5.1650     3.6028    -1.0731 H       
 173 H173          -5.5725     6.6350     1.4998 H       
 174 H174          -3.5259     5.5186     1.4049 H       
 175 H175         -10.0375     4.3372    -5.5050 H       
 176 H176         -12.6653     3.0977    -5.7988 H       
 177 H177         -12.3047     5.8946    -4.6340 H       
 178 H178         -13.8517     5.2345    -5.2166 H       
 179 H179         -13.6775     3.3808    -3.5789 H       
 180 H180         -12.1305     4.0409    -2.9963 H       
 181 H181         -13.8803     3.9354    -0.9495 H       
 182 H182         -14.6218     5.4142    -0.6562 H       
 183 H183         -14.0171     4.8090    -7.3820 H       
 184 H184         -12.1819     5.1975    -9.6200 H       
 185 H185         -11.9848     7.3341    -8.3773 H       
 186 H186         -12.8152     7.5744    -9.9332 H       
 187 H187         -13.7541     7.5233    -8.4219 H       
 188 H188         -13.7211     6.2994   -11.5382 H       
 189 H189         -16.0046     4.4827   -11.6499 H       
 190 H190         -16.3302     7.5151   -11.7348 H       
 191 H191         -17.5940     6.3500   -12.1969 H       
 192 H192         -17.5144     5.3622    -9.9238 H       
 193 H193         -16.2506     6.5274    -9.4618 H       
 194 H194         -18.3752     6.8258    -7.8311 H       
 195 H195         -19.3742     8.0939    -8.2966 H       
 196 H196         -17.2101     5.0975   -13.9805 H       
 197 H197         -15.2726     6.1455   -15.8976 H       
 198 H198         -16.1629     3.2272   -15.9117 H       
 199 H199         -15.3217     4.0334   -17.2574 H       
 200 H200         -13.4142     4.5456   -15.7582 H       
 201 H201         -14.2553     3.7394   -14.4125 H       
 202 H202         -14.2665     1.6154   -15.6920 H       
 203 H203         -13.4254     2.4216   -17.0376 H       
 204 H204         -11.9123     2.8064   -14.6841 H       
 205 H205          -9.9555    -0.0465   -15.1702 H       
 206 H206         -12.9566     0.2375   -16.8759 H       
 207 H207         -11.6177    -0.7469   -16.6288 H       
 208 H208         -16.4041     5.6611   -18.2950 H       
 209 H209         -19.3153     5.6196   -18.0707 H       
 210 H210         -17.7782     8.0931   -18.9774 H       
 211 H211         -19.5208     7.8446   -19.2422 H       
 212 H212         -19.8621     7.6311   -16.7954 H       
 213 H213         -18.1196     7.8796   -16.5306 H       
 214 H214         -18.2764    10.1137   -17.5949 H       
 215 H215         -20.0190     9.8652   -17.8597 H       
 216 H216         -19.4736     9.4903   -15.1141 H       
 217 H217         -20.0768    12.8278   -14.2766 H       
 218 H218         -19.4581    12.0163   -17.5865 H       
 219 H219         -19.7984    13.2813   -16.5345 H       
 220 H220         -18.9778     3.9862   -22.2402 H       
 221 H221         -21.1050     5.2209   -23.5435 H       
 222 H222         -21.2980     3.7994   -22.4658 H       
 223 H223         -21.6419     6.7729   -21.7789 H       
 224 H224         -22.7139     5.3971   -21.3517 H       
 225 H225         -21.1485     4.5228   -19.7445 H       
 226 H226         -20.9342     6.2859   -19.5197 H       
 227 H227         -19.0679     5.0397   -24.7123 H       
 228 H228         -18.2145     7.8323   -24.6902 H       
 229 H229         -16.3279     5.5587   -25.4522 H       
 230 H230         -16.0267     7.2793   -25.7946 H       
 231 H231         -16.1443     7.7826   -23.3695 H       
 232 H232         -16.4456     6.0620   -23.0270 H       
 233 H233         -14.2092     6.8465   -21.7441 H       
 234 H234         -12.8088     6.4356   -22.5765 H       
 235 H235         -17.3939     8.2805   -27.2178 H       
 236 H236         -18.8107     6.5388   -29.0851 H       
 237 H237         -19.6665     9.4234   -28.5792 H       
 238 H238         -20.2004     8.4390   -29.9628 H       
 239 H239         -21.1592     6.7667   -28.4031 H       
 240 H240         -20.6254     7.7511   -27.0195 H       
 241 H241         -22.0354     9.6303   -27.8124 H       
 242 H242         -22.5693     8.6459   -29.1960 H       
 243 H243         -23.0950     7.2061   -26.8239 H       
 244 H244         -26.3334     8.4683   -26.4723 H       
 245 H245         -24.0975    10.1387   -28.5235 H       
 246 H246         -25.6675    10.1495   -27.9254 H       
 247 H247         -18.6589     7.8473   -31.4362 H       
 248 H248         -15.8071     8.4349   -31.6596 H       
 249 H249         -16.2432    10.6098   -32.8393 H       
 250 H250         -17.9528    10.4880   -32.3593 H       
 251 H251         -17.2794    10.4393   -29.9733 H       
 252 H252         -15.5698    10.5611   -30.4534 H       
 253 H253         -16.2015    12.6509   -28.8733 H       
 254 H254         -16.5466    14.0423   -29.7493 H       
 255 H255         -15.4801     9.0883   -34.2536 H       
 256 H256         -16.7592     6.8603   -35.6420 H       
 257 H257         -17.1541     9.7598   -36.5055 H       
 258 H258         -17.5504     8.3440   -37.5088 H       
 259 H259         -19.1155     7.5430   -35.7602 H       
 260 H260         -18.7192     8.9589   -34.7569 H       
 261 H261         -19.5522    10.4599   -36.5462 H       
 262 H262         -19.9485     9.0440   -37.5495 H       
 263 H263         -21.5135     8.2431   -35.8009 H       
 264 H264         -21.1172     9.6590   -34.7976 H       
 265 H265         -23.1153    10.0150   -36.0899 H       
 266 H266         -21.9229    11.0432   -36.6256 H       
 267 H267         -15.8648     7.0743   -38.1752 H       
 268 H268         -12.9735     7.2781   -37.8190 H       
 269 H269         -13.6141     9.5994   -38.4106 H       
 270 H270         -12.6887     8.8371   -39.7262 H       
 271 H271         -14.4564     8.9980   -39.8587 H       
 272 H272         -11.9803     6.7830   -40.2748 H       
 273 H273         -13.3206     4.2976   -41.0192 H       
 274 H274         -13.3786     4.9592   -43.4527 H       
 275 H275         -15.0341     6.6925   -41.5628 H       
 276 H276         -15.4405     6.3140   -43.2539 H       
 277 H277         -15.4163     5.0189   -42.0331 H       
 278 H278         -11.7486     6.8215   -43.2992 H       
 279 H279         -13.2942     7.3801   -43.9828 H       
 280 H280         -12.8904     7.7374   -42.2865 H       
 281 H281         -11.8773     3.3336   -43.0538 H       
 282 H282          -9.1010     3.5828   -42.1835 H       
 283 H283          -8.3185     4.1559   -44.5011 H       
 284 H284         -10.0149     4.4180   -44.9720 H       
 285 H285         -10.2298     6.1652   -43.2257 H       
 286 H286          -8.5334     5.9031   -42.7547 H       
 287 H287          -7.8014     6.5409   -45.0364 H       
 288 H288          -9.4978     6.8030   -45.5074 H       
 289 H289          -8.9600     8.3610   -43.2139 H       
 290 H290          -7.7588     9.7528   -46.7661 H       
 291 H291          -8.5175    10.6811   -43.5166 H       
 292 H292          -8.0135    11.2519   -45.0142 H       
 293 H293          -7.7274     2.0930   -43.9601 H       
 294 H294          -9.1820    -0.4390   -43.9338 H       
 295 H295          -8.7018    -0.8350   -46.3793 H       
 296 H296         -10.4586     1.5974   -45.8300 H       
 297 H297         -10.6225     0.4444   -47.1760 H       
 298 H298         -10.9433    -0.0845   -45.5070 H       
 299 H299          -6.9293     0.8821   -46.6214 H       
 300 H300          -8.2440     1.1519   -47.7906 H       
 301 H301          -8.1304     2.1630   -46.3301 H       
 302 H302          -7.5618    -2.2656   -44.7873 H       
 303 H303          -4.7603    -1.4942   -44.4972 H       
 304 H304          -6.1486    -3.2713   -42.4401 H       
 305 H305          -4.4003    -2.9463   -42.5197 H       
 306 H306          -5.5348    -1.6267   -42.1453 H       
 307 H307          -3.4523    -3.8452   -44.3405 H       
 308 H308          -4.9121    -5.9335   -45.7674 H       
 309 H309          -2.7675    -7.1827   -45.5923 H       
 310 H310          -3.5298    -5.7659   -42.9993 H       
 311 H311          -4.4047    -7.1498   -43.6975 H       
 312 H312          -2.3426    -8.5204   -43.5648 H       
 313 H313          -1.4677    -7.1365   -42.8665 H       
 314 H314          -2.7990    -7.8961   -41.9616 H       
 315 H315          -0.8704    -6.1435   -44.3800 H       
 316 H316          -1.2503    -5.2407   -45.8662 H       
 317 H317          -1.7708    -4.6110   -44.2848 H       
 318 H318          -3.1512    -5.7072   -48.9150 H       
 319 H319          12.3404    -6.7224     0.7248 H       
 320 H320          11.5590    -7.6861     2.0011 H       
 321 H321          12.0658    -8.4643     0.4826 H       
 322 H322          10.3973    -7.1186    -0.7639 H       
 323 H323           9.6160    -8.0823     0.5124 H       
 324 H324           9.6239    -6.1058     2.0097 H       
 325 H325          10.4052    -5.1420     0.7334 H       
 326 H326           8.4622    -5.5382    -0.7553 H       
 327 H327           7.6808    -6.5020     0.5211 H       
 328 H328           7.6887    -4.5254     2.0183 H       
 329 H329           8.4701    -3.5617     0.7420 H       
 330 H330           6.5270    -3.9579    -0.7467 H       
 331 H331           5.7456    -4.9216     0.5297 H       
 332 H332           5.7535    -2.9451     2.0270 H       
 333 H333           6.5349    -1.9814     0.7506 H       
 334 H334           4.5918    -2.3776    -0.7380 H       
 335 H335           3.8105    -3.3413     0.5383 H       
 336 H336           3.8184    -1.3647     2.0356 H       
 337 H337           4.5997    -0.4010     0.7592 H       
 338 H338           2.6567    -0.7972    -0.7294 H       
 339 H339           1.8753    -1.7609     0.5469 H       
 340 H340           1.8832     0.2156     2.0442 H       
 341 H341           2.6646     1.1793     0.7678 H       
 342 H342           0.7215     0.7831    -0.7208 H       
 343 H343          -0.0598    -0.1806     0.5555 H       
 344 H344          -0.0519     1.7959     2.0528 H       
 345 H345           0.7294     2.7597     0.7765 H       
 346 H346          -1.2137     2.3635    -0.7122 H       
 347 H347          -1.9950     1.3997     0.5641 H       
 348 H348          -1.2058     4.3400     0.7851 H       
 349 H349          -1.9871     3.3763     2.0614 H       
@<TRIPOS>BOND
   1    1    2 2
   2    1    4 1
   3    1   14 am
   4    3    4 1
   5    3  163 1
   6    3  164 1
   7    4    5 1
   8    4  165 1
   9    5    6 1
  10    5  166 1
  11    5  167 1
  12    6    7 1
  13    6  168 1
  14    6  169 1
  15    7    8 1
  16    7  170 1
  17    7  171 1
  18    8    9 1
  19    8  172 1
  20    9   10 2
  21    9   11 1
  22   10  173 1
  23   11  146 am
  24   11  174 1
  25   12   13 2
  26   12   15 1
  27   12   23 am
  28   14   15 1
  29   14  175 1
  30   15   16 1
  31   15  176 1
  32   16   17 1
  33   16  177 1
  34   16  178 1
  35   17   18 1
  36   17  179 1
  37   17  180 1
  38   18   19 2
  39   18   20 am
  40   20  181 1
  41   20  182 1
  42   21   22 2
  43   21   24 1
  44   21   28 am
  45   23   24 1
  46   23  183 1
  47   24   25 1
  48   24  184 1
  49   25  185 1
  50   25  186 1
  51   25  187 1
  52   26   27 2
  53   26   29 1
  54   26   37 am
  55   28   29 1
  56   28  188 1
  57   29   30 1
  58   29  189 1
  59   30   31 1
  60   30  190 1
  61   30  191 1
  62   31   32 1
  63   31  192 1
  64   31  193 1
  65   32   33 2
  66   32   34 am
  67   34  194 1
  68   34  195 1
  69   35   36 2
  70   35   38 1
  71   35   48 am
  72   37   38 1
  73   37  196 1
  74   38   39 1
  75   38  197 1
  76   39   40 1
  77   39  198 1
  78   39  199 1
  79   40   41 1
  80   40  200 1
  81   40  201 1
  82   41   42 1
  83   41  202 1
  84   41  203 1
  85   42   43 1
  86   42  204 1
  87   43   44 2
  88   43   45 1
  89   44  205 1
  90   45  206 1
  91   45  207 1
  92   46   47 2
  93   46   49 1
  94   46   59 am
  95   48   49 1
  96   48  208 1
  97   49   50 1
  98   49  209 1
  99   50   51 1
 100   50  210 1
 101   50  211 1
 102   51   52 1
 103   51  212 1
 104   51  213 1
 105   52   53 1
 106   52  214 1
 107   52  215 1
 108   53   54 1
 109   53  216 1
 110   54   55 2
 111   54   56 1
 112   55  217 1
 113   56  218 1
 114   56  219 1
 115   57   58 2
 116   57   66 am
 117   57   60 1
 118   59   60 1
 119   59   63 1
 120   60   61 1
 121   60  220 1
 122   61   62 1
 123   61  221 1
 124   61  222 1
 125   62   63 1
 126   62  223 1
 127   62  224 1
 128   63  225 1
 129   63  226 1
 130   64   65 2
 131   64   67 1
 132   64   75 am
 133   66   67 1
 134   66  227 1
 135   67   68 1
 136   67  228 1
 137   68   69 1
 138   68  229 1
 139   68  230 1
 140   69   70 1
 141   69  231 1
 142   69  232 1
 143   70   71 2
 144   70   72 am
 145   72  233 1
 146   72  234 1
 147   73   74 2
 148   73   76 1
 149   73   86 am
 150   75   76 1
 151   75  235 1
 152   76   77 1
 153   76  236 1
 154   77   78 1
 155   77  237 1
 156   77  238 1
 157   78   79 1
 158   78  239 1
 159   78  240 1
 160   79   80 1
 161   79  241 1
 162   79  242 1
 163   80   81 1
 164   80  243 1
 165   81   82 2
 166   81   83 1
 167   82  244 1
 168   83  245 1
 169   83  246 1
 170   84   85 2
 171   84   87 1
 172   84   95 am
 173   86   87 1
 174   86  247 1
 175   87   88 1
 176   87  248 1
 177   88   89 1
 178   88  249 1
 179   88  250 1
 180   89   90 1
 181   89  251 1
 182   89  252 1
 183   90   91 2
 184   90   92 am
 185   92  253 1
 186   92  254 1
 187   93   94 2
 188   93   96 1
 189   93  104 am
 190   95   96 1
 191   95  255 1
 192   96   97 1
 193   96  256 1
 194   97   98 1
 195   97  257 1
 196   97  258 1
 197   98   99 1
 198   98  259 1
 199   98  260 1
 200   99  100 1
 201   99  261 1
 202   99  262 1
 203  100  101 1
 204  100  263 1
 205  100  264 1
 206  101  265 1
 207  101  266 1
 208  102  103 2
 209  102  105 1
 210  102  109 am
 211  104  105 1
 212  104  267 1
 213  105  106 1
 214  105  268 1
 215  106  269 1
 216  106  270 1
 217  106  271 1
 218  107  108 2
 219  107  110 1
 220  107  116 am
 221  109  110 1
 222  109  272 1
 223  110  111 1
 224  110  273 1
 225  111  112 1
 226  111  113 1
 227  111  274 1
 228  112  275 1
 229  112  276 1
 230  112  277 1
 231  113  278 1
 232  113  279 1
 233  113  280 1
 234  114  115 2
 235  114  117 1
 236  114  127 am
 237  116  117 1
 238  116  281 1
 239  117  118 1
 240  117  282 1
 241  118  119 1
 242  118  283 1
 243  118  284 1
 244  119  120 1
 245  119  285 1
 246  119  286 1
 247  120  121 1
 248  120  287 1
 249  120  288 1
 250  121  122 1
 251  121  289 1
 252  122  123 2
 253  122  124 1
 254  123  290 1
 255  124  291 1
 256  124  292 1
 257  125  126 2
 258  125  128 1
 259  125  134 am
 260  127  128 1
 261  127  293 1
 262  128  129 1
 263  128  294 1
 264  129  130 1
 265  129  131 1
 266  129  295 1
 267  130  296 1
 268  130  297 1
 269  130  298 1
 270  131  299 1
 271  131  300 1
 272  131  301 1
 273  132  133 2
 274  132  135 1
 275  132  139 am
 276  134  135 1
 277  134  302 1
 278  135  136 1
 279  135  303 1
 280  136  304 1
 281  136  305 1
 282  136  306 1
 283  137  138 2
 284  137  140 1
 285  137  145 1
 286  139  140 1
 287  139  307 1
 288  140  141 1
 289  140  308 1
 290  141  142 1
 291  141  144 1
 292  141  309 1
 293  142  143 1
 294  142  310 1
 295  142  311 1
 296  143  312 1
 297  143  313 1
 298  143  314 1
 299  144  315 1
 300  144  316 1
 301  144  317 1
 302  145  318 1
 303  146  147 2
 304  146  162 1
 305  148  149 1
 306  148  319 1
 307  148  320 1
 308  148  321 1
 309  149  150 1
 310  149  322 1
 311  149  323 1
 312  150  151 1
 313  150  324 1
 314  150  325 1
 315  151  152 1
 316  151  326 1
 317  151  327 1
 318  152  153 1
 319  152  328 1
 320  152  329 1
 321  153  154 1
 322  153  330 1
 323  153  331 1
 324  154  155 1
 325  154  332 1
 326  154  333 1
 327  155  156 1
 328  155  334 1
 329  155  335 1
 330  156  157 1
 331  156  336 1
 332  156  337 1
 333  157  158 1
 334  157  338 1
 335  157  339 1
 336  158  159 1
 337  158  340 1
 338  158  341 1
 339  159  160 1
 340  159  342 1
 341  159  343 1
 342  160  161 1
 343  160  344 1
 344  160  345 1
 345  161  162 1
 346  161  346 1
 347  161  347 1
 348  162  348 1
 349  162  349 1

#	End of record

