#	Name: ASD08070263
#	Creating user name:	WinNT
#	Creation time:	15. 06. 2019 21:14

#	Modifying user name:	WinNT
#	Modification time:	15. 06. 2019 21:14

#	Program:	/corina/corina34_cracker 3.40 0067  02.08.2006

@<TRIPOS>MOLECULE
ASD08070263
  43   45    0    0    0
SMALL
NO_CHARGES


@<TRIPOS>ATOM
   1 C1            -0.0165     1.3620     0.0095 C.2     
   2 C2             0.0021    -0.0041     0.0020 C.2     
   3 C3             1.2527    -0.5593    -0.0129 C.2     
   4 C4             2.2779     0.3408    -0.0179 C.2     
   5 S5             1.6313     1.9758    -0.0029 S.3     
   6 C6            -1.2264     2.1904     0.0200 C.2     
   7 O7            -2.3239     1.6645     0.0225 O.2     
   8 N8            -1.1230     3.5341     0.0267 N.am    
   9 C9            -2.3318     4.3617     0.0372 C.3     
  10 C10           -1.9437     5.8179     0.0432 C.ar    
  11 C11           -1.5691     6.4405    -1.1394 C.ar    
  12 C12           -1.2122     7.7799    -1.1332 C.ar    
  13 C13           -1.2303     8.4944     0.0550 C.ar    
  14 C14           -1.6055     7.8674     1.2345 C.ar    
  15 C15           -1.9664     6.5333     1.2248 C.ar    
  16 O16           -0.8805     9.8075     0.0643 O.3     
  17 C17           -0.9222    10.4810     1.3239 C.3     
  18 O18           -1.5519     5.7375    -2.3022 O.3     
  19 C19           -1.1562     6.4424    -3.4806 C.3     
  20 C20            3.7142    -0.0059    -0.0334 C.ar    
  21 C21            4.6718     1.0096    -0.0371 C.ar    
  22 C22            6.0125     0.6686    -0.0513 C.ar    
  23 C23            6.3544    -0.6767    -0.0613 C.ar    
  24 C24            5.3540    -1.6317    -0.0569 C.ar    
  25 N25            4.0844    -1.2816    -0.0383 N.ar    
  26 H26           -0.8993    -0.5989     0.0078 H       
  27 H27            1.4155    -1.6270    -0.0199 H       
  28 H28           -0.2483     3.9533     0.0247 H       
  29 H29           -2.9263     4.1478    -0.8511 H       
  30 H30           -2.9176     4.1382     0.9288 H       
  31 H31           -0.9201     8.2661    -2.0523 H       
  32 H32           -1.6198     8.4234     2.1603 H       
  33 H33           -2.2623     6.0482     2.1432 H       
  34 H34           -0.2413     9.9916     2.0204 H       
  35 H35           -0.6206    11.5200     1.1906 H       
  36 H36           -1.9364    10.4453     1.7217 H       
  37 H37           -1.1860     5.7667    -4.3354 H       
  38 H38           -1.8380     7.2753    -3.6520 H       
  39 H39           -0.1427     6.8228    -3.3533 H       
  40 H40            4.3704     2.0467    -0.0294 H       
  41 H41            6.7762     1.4323    -0.0548 H       
  42 H42            7.3923    -0.9751    -0.0728 H       
  43 H43            5.6175    -2.6790    -0.0651 H       
@<TRIPOS>BOND
   1    1    2 2
   2    1    5 1
   3    1    6 1
   4    2    3 1
   5    2   26 1
   6    3    4 2
   7    3   27 1
   8    4    5 1
   9    4   20 1
  10    6    7 2
  11    6    8 am
  12    8    9 1
  13    8   28 1
  14    9   10 1
  15    9   29 1
  16    9   30 1
  17   10   11 ar
  18   10   15 ar
  19   11   12 ar
  20   11   18 1
  21   12   13 ar
  22   12   31 1
  23   13   14 ar
  24   13   16 1
  25   14   15 ar
  26   14   32 1
  27   15   33 1
  28   16   17 1
  29   17   34 1
  30   17   35 1
  31   17   36 1
  32   18   19 1
  33   19   37 1
  34   19   38 1
  35   19   39 1
  36   20   21 ar
  37   20   25 ar
  38   21   22 ar
  39   21   40 1
  40   22   23 ar
  41   22   41 1
  42   23   24 ar
  43   23   42 1
  44   24   25 ar
  45   24   43 1

#	End of record

