#	Name: ASD03090447
#	Creating user name:	WinNT
#	Creation time:	15. 06. 2019 20:28

#	Modifying user name:	WinNT
#	Modification time:	15. 06. 2019 20:28

#	Program:	/corina/corina34_cracker 3.40 0067  02.08.2006

@<TRIPOS>MOLECULE
ASD03090447
  46   49    0    0    0
SMALL
NO_CHARGES


@<TRIPOS>ATOM
   1 C1             0.3504     1.5023     1.4105 C.ar    
   2 C2             0.4266     0.1252     1.6178 C.ar    
   3 C3             1.5209    -0.5691     1.1345 C.ar    
   4 C4             2.5090     0.1395     0.4558 C.ar    
   5 C5             2.3653     1.5143     0.2865 C.ar    
   6 N6             1.3131     2.1438     0.7581 N.ar    
   7 C7            -0.8177     2.2552     1.9171 C.2     
   8 O8            -1.7048     1.6736     2.5105 O.2     
   9 N9            -0.8984     3.5861     1.7206 N.am    
  10 O10            3.5997    -0.5021    -0.0345 O.3     
  11 C11            3.6402    -1.8568     0.0629 C.ar    
  12 C12            3.1019    -2.6425    -0.9462 C.ar    
  13 C13            3.1449    -4.0195    -0.8450 C.ar    
  14 C14            3.7233    -4.6150     0.2608 C.ar    
  15 C15            4.2604    -3.8343     1.2678 C.ar    
  16 C16            4.2252    -2.4569     1.1688 C.ar    
  17 C17            3.7678    -6.1174     0.3690 C.3     
  18 C18           -2.0553     4.3318     2.2223 C.3     
  19 N19           -0.5497     9.0563     3.0812 N.pl3   
  20 C20           -0.6825    10.1848     2.3190 C.2     
  21 C21           -1.3284     9.8935     1.1788 C.2     
  22 C22           -1.6342     8.4613     1.2137 C.ar    
  23 C23           -2.2777     7.5846     0.3380 C.ar    
  24 C24           -2.4073     6.2661     0.6717 C.ar    
  25 C25           -1.9025     5.7901     1.8742 C.ar    
  26 C26           -1.2638     6.6374     2.7526 C.ar    
  27 C27           -1.1214     7.9841     2.4336 C.ar    
  28 H28           -0.3585    -0.3923     2.1491 H       
  29 H29            1.6071    -1.6357     1.2803 H       
  30 H30            3.1281     2.0697    -0.2389 H       
  31 H31           -0.1905     4.0503     1.2470 H       
  32 H32            2.6495    -2.1779    -1.8098 H       
  33 H33            2.7261    -4.6315    -1.6301 H       
  34 H34            4.7113    -4.3019     2.1306 H       
  35 H35            4.6485    -1.8476     1.9536 H       
  36 H36            4.6875    -6.4872    -0.0844 H       
  37 H37            3.7385    -6.4071     1.4194 H       
  38 H38            2.9097    -6.5446    -0.1498 H       
  39 H39           -2.9648     3.9425     1.7648 H       
  40 H40           -2.1172     4.2212     3.3049 H       
  41 H41           -0.1140     9.0166     3.9469 H       
  42 H42           -0.3215    11.1648     2.5940 H       
  43 H43           -1.5757    10.5840     0.3861 H       
  44 H44           -2.6729     7.9478    -0.5992 H       
  45 H45           -2.9055     5.5885    -0.0058 H       
  46 H46           -0.8748     6.2576     3.6858 H       
@<TRIPOS>BOND
   1    1    2 ar
   2    1    6 ar
   3    1    7 1
   4    2    3 ar
   5    2   28 1
   6    3    4 ar
   7    3   29 1
   8    4    5 ar
   9    4   10 1
  10    5    6 ar
  11    5   30 1
  12    7    8 2
  13    7    9 am
  14    9   18 1
  15    9   31 1
  16   10   11 1
  17   11   12 ar
  18   11   16 ar
  19   12   13 ar
  20   12   32 1
  21   13   14 ar
  22   13   33 1
  23   14   15 ar
  24   14   17 1
  25   15   16 ar
  26   15   34 1
  27   16   35 1
  28   17   36 1
  29   17   37 1
  30   17   38 1
  31   18   25 1
  32   18   39 1
  33   18   40 1
  34   19   20 1
  35   19   27 1
  36   19   41 1
  37   20   21 2
  38   20   42 1
  39   21   22 1
  40   21   43 1
  41   22   23 ar
  42   22   27 ar
  43   23   24 ar
  44   23   44 1
  45   24   25 ar
  46   24   45 1
  47   25   26 ar
  48   26   27 ar
  49   26   46 1

#	End of record

