#	Name: ASD01150053
#	Creating user name:	WinNT
#	Creation time:	15. 06. 2019 19:03

#	Modifying user name:	WinNT
#	Modification time:	15. 06. 2019 19:03

#	Program:	/corina/corina34_cracker 3.40 0067  02.08.2006

@<TRIPOS>MOLECULE
ASD01150053
  26   26    0    0    0
SMALL
NO_CHARGES


@<TRIPOS>ATOM
   1 C1             7.0775     1.3153    -0.8928 C.ar    
   2 C2             7.1165     0.0000    -0.4676 C.ar    
   3 C3             5.9719    -0.6084     0.0141 C.ar    
   4 C4             4.7855     0.0963     0.0716 C.ar    
   5 C5             4.7429     1.4174    -0.3546 C.ar    
   6 C6             5.8944     2.0256    -0.8374 C.ar    
   7 N7             3.5429     2.1337    -0.2981 N.pl3   
   8 C8             3.5534     3.4605     0.0337 C.2     
   9 N9             2.4027     4.1933    -0.0438 N.pl3   
  10 N10            4.6764     4.0338     0.4292 N.2     
  11 C11            4.6588     5.3033     0.9026 C.1     
  12 C12            2.4373     5.5572    -0.5776 C.3     
  13 N13            4.6441     6.3676     1.2996 N.1     
  14 C14            1.1343     3.6151     0.4068 C.3     
  15 H15            7.9741     1.7889    -1.2644 H       
  16 H16            8.0429    -0.5534    -0.5123 H       
  17 H17            6.0057    -1.6357     0.3454 H       
  18 H18            3.8918    -0.3797     0.4473 H       
  19 H19            5.8646     3.0530    -1.1693 H       
  20 H20            2.7032     1.6895    -0.4942 H       
  21 H21            3.4455     5.7869    -0.9226 H       
  22 H22            1.7405     5.6387    -1.4118 H       
  23 H23            2.1518     6.2608     0.2044 H       
  24 H24            1.2955     2.5827     0.7170 H       
  25 H25            0.7508     4.1918     1.2486 H       
  26 H26            0.4128     3.6407    -0.4099 H       
@<TRIPOS>BOND
   1    1    2 ar
   2    1    6 ar
   3    1   15 1
   4    2    3 ar
   5    2   16 1
   6    3    4 ar
   7    3   17 1
   8    4    5 ar
   9    4   18 1
  10    5    6 ar
  11    5    7 1
  12    6   19 1
  13    7    8 1
  14    7   20 1
  15    8    9 1
  16    8   10 2
  17    9   12 1
  18    9   14 1
  19   10   11 1
  20   11   13 3
  21   12   21 1
  22   12   22 1
  23   12   23 1
  24   14   24 1
  25   14   25 1
  26   14   26 1

#	End of record

