#	Name: ASD03240922
#	Creating user name:	WinNT
#	Creation time:	15. 06. 2019 20:35

#	Modifying user name:	WinNT
#	Modification time:	15. 06. 2019 20:35

#	Program:	/corina/corina34_cracker 3.40 0067  02.08.2006

@<TRIPOS>MOLECULE
ASD03240922
  80   87    0    0    0
SMALL
NO_CHARGES


@<TRIPOS>ATOM
   1 C1            -0.0180     1.4729     0.0101 C.2     
   2 C2             0.0021    -0.0041     0.0020 C.ar    
   3 C3             1.2214    -0.6863    -0.0133 C.ar    
   4 C4             1.2398    -2.0624    -0.0209 C.ar    
   5 C5             0.0397    -2.7770    -0.0133 C.ar    
   6 C6            -1.1794    -2.0953     0.0020 C.ar    
   7 C7            -1.1983    -0.7193     0.0154 C.ar    
   8 O8             1.0265     2.0950     0.0035 O.2     
   9 N9            -1.1942     2.1308     0.0193 N.am    
  10 N10            0.7687    -6.2581    -0.0393 N.2     
  11 N11            1.1270    -5.0233    -0.0363 N.2     
  12 C12            0.0597    -4.2551    -0.0220 C.2     
  13 N13           -1.0292    -5.0848    -0.0158 N.pl3   
  14 C14           -0.5353    -6.3455    -0.0272 C.2     
  15 N15           -3.7953    -8.9989     0.6186 N.3     
  16 C16           -2.5797    -9.2488     1.4036 C.3     
  17 C17           -1.7093    -7.9901     1.4132 C.3     
  18 C18           -1.3424    -7.6181    -0.0261 C.3     
  19 C19           -2.6262    -7.4106    -0.8344 C.3     
  20 C20           -3.4700    -8.6861    -0.7788 C.3     
  21 C21           -4.7192   -10.1380     0.7017 C.3     
  22 C22           -6.0450    -9.7547     0.0965 C.ar    
  23 C23           -6.2730    -9.9643    -1.2519 C.ar    
  24 C24           -7.4850    -9.6159    -1.8118 C.ar    
  25 C25           -8.4813    -9.0513    -1.0155 C.ar    
  26 C26           -8.2453    -8.8424     0.3434 C.ar    
  27 C27           -7.0311    -9.1999     0.8926 C.ar    
  28 N28          -10.9952    -7.3713    -4.7155 N.pl3   
  29 C29          -12.1888    -7.0167    -5.2836 C.2     
  30 N30          -13.3538    -7.1253    -4.6208 N.2     
  31 C31          -13.4148    -7.5760    -3.3944 C.2     
  32 C32          -12.1800    -7.9744    -2.7220 C.ar    
  33 C33          -12.1808    -8.4629    -1.4111 C.ar    
  34 C34          -10.9599    -8.8190    -0.8479 C.ar    
  35 C35           -9.7842    -8.6746    -1.6102 C.ar    
  36 N36           -9.8226    -8.2078    -2.8491 N.ar    
  37 C37          -10.9609    -7.8585    -3.4230 C.ar    
  38 C38          -11.9039    -6.5708    -6.5672 C.2     
  39 C39          -10.5303    -6.6652    -6.7524 C.2     
  40 N40           -9.9852    -7.1341    -5.6556 N.2     
  41 C41          -10.8965    -9.3425     0.5377 C.ar    
  42 C42          -11.5329    -8.6599     1.5733 C.ar    
  43 C43          -11.4709    -9.1522     2.8610 C.ar    
  44 C44          -10.7790   -10.3206     3.1252 C.ar    
  45 C45          -10.1453   -11.0019     2.1016 C.ar    
  46 C46          -10.2053   -10.5222     0.8090 C.ar    
  47 C47           -9.7872    -6.2852    -8.0072 C.3     
  48 H48            2.1494    -0.1338    -0.0195 H       
  49 H49            2.1822    -2.5897    -0.0331 H       
  50 H50           -2.1071    -2.6481     0.0075 H       
  51 H51           -2.1408    -0.1922     0.0321 H       
  52 H52           -2.0276     1.6345     0.0205 H       
  53 H53           -1.2073     3.1007     0.0246 H       
  54 H54           -1.9632    -4.8232    -0.0057 H       
  55 H55           -2.8545    -9.5081     2.4260 H       
  56 H56           -2.0222   -10.0724     0.9575 H       
  57 H57           -2.2612    -7.1695     1.8717 H       
  58 H58           -0.7998    -8.1809     1.9829 H       
  59 H59           -0.7561    -8.4217    -0.4718 H       
  60 H60           -3.1925    -6.5809    -0.4112 H       
  61 H61           -2.3718    -7.1873    -1.8705 H       
  62 H62           -2.9084    -9.5123    -1.2147 H       
  63 H63           -4.3915    -8.5367    -1.3416 H       
  64 H64           -4.3020   -10.9846     0.1565 H       
  65 H65           -4.8628   -10.4137     1.7465 H       
  66 H66           -5.5007   -10.4012    -1.8675 H       
  67 H67           -7.6617    -9.7797    -2.8646 H       
  68 H68           -9.0127    -8.4053     0.9650 H       
  69 H69           -6.8486    -9.0425     1.9454 H       
  70 H70          -14.3644    -7.6523    -2.8856 H       
  71 H71          -13.1007    -8.5608    -0.8538 H       
  72 H72          -12.6214    -6.2149    -7.2917 H       
  73 H73          -12.0730    -7.7475     1.3683 H       
  74 H74          -11.9632    -8.6241     3.6642 H       
  75 H75          -10.7332   -10.7021     4.1345 H       
  76 H76           -9.6059   -11.9132     2.3138 H       
  77 H77           -9.7139   -11.0574     0.0100 H       
  78 H78           -9.4941    -5.2368    -7.9524 H       
  79 H79           -8.8971    -6.9067    -8.1046 H       
  80 H80          -10.4329    -6.4373    -8.8721 H       
@<TRIPOS>BOND
   1    1    2 1
   2    1    8 2
   3    1    9 am
   4    2    3 ar
   5    2    7 ar
   6    3    4 ar
   7    3   48 1
   8    4    5 ar
   9    4   49 1
  10    5    6 ar
  11    5   12 1
  12    6    7 ar
  13    6   50 1
  14    7   51 1
  15    9   52 1
  16    9   53 1
  17   10   11 1
  18   10   14 2
  19   11   12 2
  20   12   13 1
  21   13   14 1
  22   13   54 1
  23   14   18 1
  24   15   16 1
  25   15   20 1
  26   15   21 1
  27   16   17 1
  28   16   55 1
  29   16   56 1
  30   17   18 1
  31   17   57 1
  32   17   58 1
  33   18   19 1
  34   18   59 1
  35   19   20 1
  36   19   60 1
  37   19   61 1
  38   20   62 1
  39   20   63 1
  40   21   22 1
  41   21   64 1
  42   21   65 1
  43   22   23 ar
  44   22   27 ar
  45   23   24 ar
  46   23   66 1
  47   24   25 ar
  48   24   67 1
  49   25   26 ar
  50   25   35 1
  51   26   27 ar
  52   26   68 1
  53   27   69 1
  54   28   29 1
  55   28   37 1
  56   28   40 1
  57   29   30 1
  58   29   38 2
  59   30   31 2
  60   31   32 1
  61   31   70 1
  62   32   33 ar
  63   32   37 ar
  64   33   34 ar
  65   33   71 1
  66   34   35 ar
  67   34   41 1
  68   35   36 ar
  69   36   37 ar
  70   38   39 1
  71   38   72 1
  72   39   40 2
  73   39   47 1
  74   41   42 ar
  75   41   46 ar
  76   42   43 ar
  77   42   73 1
  78   43   44 ar
  79   43   74 1
  80   44   45 ar
  81   44   75 1
  82   45   46 ar
  83   45   76 1
  84   46   77 1
  85   47   78 1
  86   47   79 1
  87   47   80 1

#	End of record

