#	Name: ASD01900071
#	Creating user name:	WinNT
#	Creation time:	15. 06. 2019 19:51

#	Modifying user name:	WinNT
#	Modification time:	15. 06. 2019 19:51

#	Program:	/corina/corina34_cracker 3.40 0067  02.08.2006

@<TRIPOS>MOLECULE
ASD01900071
  38   40    0    0    0
SMALL
NO_CHARGES


@<TRIPOS>ATOM
   1 C1            -0.0162     1.3436     0.0094 C.2     
   2 N2             0.0021    -0.0041     0.0020 N.am    
   3 O3             1.0282     1.9656     0.0028 O.2     
   4 C4             1.2298    -0.6908    -0.0134 C.2     
   5 C5             1.3920    -2.0389    -0.0222 C.2     
   6 N6             2.7265    -2.2909    -0.0363 N.am    
   7 N7             3.3968    -1.0611    -0.0361 N.2     
   8 C8             2.5041    -0.1047    -0.0285 C.2     
   9 S9             3.4355    -3.7874    -0.0502 S.o2    
  10 O10            4.7419    -3.6174     0.4824 O.2     
  11 O11            2.4833    -4.6877     0.4991 O.2     
  12 C12            3.6426    -4.2507    -1.7376 C.ar    
  13 C13            4.8056    -3.9197    -2.4075 C.ar    
  14 C14            4.9681    -4.2832    -3.7312 C.ar    
  15 C15            3.9677    -4.9779    -4.3850 C.ar    
  16 C16            2.8050    -5.3097    -3.7149 C.ar    
  17 C17            2.6444    -4.9500    -2.3898 C.ar    
  18 C18            4.1444    -5.3733    -5.8285 C.3     
  19 C19           -1.3076     2.0659     0.0195 C.ar    
  20 N20           -2.4455     1.3815     0.0212 N.ar    
  21 C21           -3.6136     1.9847     0.0300 C.ar    
  22 C22           -3.7024     3.3681     0.0375 C.ar    
  23 C23           -2.5417     4.1239     0.0361 C.ar    
  24 C24           -1.3205     3.4619     0.0329 C.ar    
  25 F25           -0.1629     4.1584     0.0319 F       
  26 H26           -0.8313    -0.5005     0.0073 H       
  27 H27            0.6032    -2.7766    -0.0186 H       
  28 H28            2.7127     0.9549    -0.0270 H       
  29 H29            5.5872    -3.3769    -1.8967 H       
  30 H30            5.8764    -4.0240    -4.2548 H       
  31 H31            2.0233    -5.8522    -4.2257 H       
  32 H32            1.7361    -5.2092    -1.8662 H       
  33 H33            4.6110    -6.3569    -5.8813 H       
  34 H34            3.1710    -5.4061    -6.3179 H       
  35 H35            4.7789    -4.6427    -6.3302 H       
  36 H36           -4.5175     1.3936     0.0310 H       
  37 H37           -4.6678     3.8521     0.0440 H       
  38 H38           -2.5852     5.2030     0.0414 H       
@<TRIPOS>BOND
   1    1    2 am
   2    1    3 2
   3    1   19 1
   4    2    4 1
   5    2   26 1
   6    4    5 2
   7    4    8 1
   8    5    6 1
   9    5   27 1
  10    6    7 1
  11    6    9 am
  12    7    8 2
  13    8   28 1
  14    9   10 2
  15    9   11 2
  16    9   12 1
  17   12   13 ar
  18   12   17 ar
  19   13   14 ar
  20   13   29 1
  21   14   15 ar
  22   14   30 1
  23   15   16 ar
  24   15   18 1
  25   16   17 ar
  26   16   31 1
  27   17   32 1
  28   18   33 1
  29   18   34 1
  30   18   35 1
  31   19   20 ar
  32   19   24 ar
  33   20   21 ar
  34   21   22 ar
  35   21   36 1
  36   22   23 ar
  37   22   37 1
  38   23   24 ar
  39   23   38 1
  40   24   25 1

#	End of record

