#	Name: ASD01810060
#	Creating user name:	WinNT
#	Creation time:	15. 06. 2019 19:23

#	Modifying user name:	WinNT
#	Modification time:	15. 06. 2019 19:23

#	Program:	/corina/corina34_cracker 3.40 0067  02.08.2006

@<TRIPOS>MOLECULE
ASD01810060
  60   64    0    0    0
SMALL
NO_CHARGES


@<TRIPOS>ATOM
   1 C1             0.0937     1.1987    -0.6317 C.ar    
   2 C2             0.1357    -0.1839    -0.7023 C.ar    
   3 C3             1.3502    -0.8443    -0.7138 C.ar    
   4 C4             2.5301    -0.1192    -0.6549 C.ar    
   5 C5             2.4872     1.2750    -0.5842 C.ar    
   6 C6             1.2650     1.9288    -0.5727 C.ar    
   7 N7             3.8751    -0.4813    -0.6492 N.am    
   8 C8             4.6163     0.6404    -0.5783 C.2     
   9 N9             3.8080     1.7164    -0.5377 N.am    
  10 C10            4.2431     3.1131    -0.4589 C.3     
  11 C11            5.0615     3.3229     0.8181 C.3     
  12 C12            5.5642     4.7676     0.8644 C.3     
  13 N13            6.3914     5.0375    -0.3185 N.3     
  14 C14            5.6141     4.8885    -1.5554 C.3     
  15 C15            5.1129     3.4474    -1.6739 C.3     
  16 O16            5.8324     0.6763    -0.5545 O.2     
  17 C17            7.0043     6.3702    -0.2393 C.3     
  18 C18            7.9549     6.5675    -1.4233 C.3     
  19 C19            8.5435     7.9791    -1.3690 C.3     
  20 N20            7.4574     8.9660    -1.4205 N.3     
  21 C21            6.5582     8.8266    -0.2679 C.3     
  22 C22            5.9103     7.4403    -0.2893 C.3     
  23 C23            7.9909    10.3318    -1.5098 C.3     
  24 C24            6.8946    11.2722    -1.9394 C.ar    
  25 C25            6.4852    11.3067    -3.2737 C.ar    
  26 C26            5.4681    12.1810    -3.6630 C.ar    
  27 C27            4.8751    13.0038    -2.7284 C.ar    
  28 C28            5.2861    12.9648    -1.4075 C.ar    
  29 C29            6.2891    12.0971    -1.0139 C.ar    
  30 Cl30          -1.3426    -1.0912    -0.7760 Cl      
  31 C31            7.1057    10.4499    -4.2388 C.1     
  32 N32            7.5980     9.7702    -5.0044 N.1     
  33 H33           -0.8585     1.7083    -0.6272 H       
  34 H34            1.3795    -1.9225    -0.7682 H       
  35 H35            1.2285     3.0068    -0.5184 H       
  36 H36            4.2191    -1.3874    -0.6890 H       
  37 H37            3.3705     3.7661    -0.4437 H       
  38 H38            4.4347     3.1276     1.6882 H       
  39 H39            5.9121     2.6413     0.8212 H       
  40 H40            4.7128     5.4482     0.8752 H       
  41 H41            6.1593     4.9163     1.7654 H       
  42 H42            4.7625     5.5685    -1.5333 H       
  43 H43            6.2454     5.1251    -2.4118 H       
  44 H44            5.9643     2.7678    -1.7100 H       
  45 H45            4.5228     3.3410    -2.5842 H       
  46 H46            7.5609     6.4603     0.6936 H       
  47 H47            8.7603     5.8350    -1.3694 H       
  48 H48            7.4061     6.4377    -2.3561 H       
  49 H49            9.1037     8.1035    -0.4423 H       
  50 H50            9.2098     8.1276    -2.2187 H       
  51 H51            7.1278     8.9471     0.6537 H       
  52 H52            5.7826     9.5908    -0.3178 H       
  53 H53            5.3294     7.3243    -1.2043 H       
  54 H54            5.2550     7.3315     0.5748 H       
  55 H55            8.3710    10.6379    -0.5352 H       
  56 H56            8.7997    10.3588    -2.2401 H       
  57 H57            5.1469    12.2129    -4.6937 H       
  58 H58            4.0884    13.6804    -3.0281 H       
  59 H59            4.8186    13.6115    -0.6798 H       
  60 H60            6.6050    12.0717     0.0186 H       
@<TRIPOS>BOND
   1    1    2 ar
   2    1    6 ar
   3    1   33 1
   4    2    3 ar
   5    2   30 1
   6    3    4 ar
   7    3   34 1
   8    4    5 ar
   9    4    7 1
  10    5    6 ar
  11    5    9 1
  12    6   35 1
  13    7    8 am
  14    7   36 1
  15    8    9 am
  16    8   16 2
  17    9   10 1
  18   10   11 1
  19   10   15 1
  20   10   37 1
  21   11   12 1
  22   11   38 1
  23   11   39 1
  24   12   13 1
  25   12   40 1
  26   12   41 1
  27   13   14 1
  28   13   17 1
  29   14   15 1
  30   14   42 1
  31   14   43 1
  32   15   44 1
  33   15   45 1
  34   17   18 1
  35   17   22 1
  36   17   46 1
  37   18   19 1
  38   18   47 1
  39   18   48 1
  40   19   20 1
  41   19   49 1
  42   19   50 1
  43   20   21 1
  44   20   23 1
  45   21   22 1
  46   21   51 1
  47   21   52 1
  48   22   53 1
  49   22   54 1
  50   23   24 1
  51   23   55 1
  52   23   56 1
  53   24   25 ar
  54   24   29 ar
  55   25   26 ar
  56   25   31 1
  57   26   27 ar
  58   26   57 1
  59   27   28 ar
  60   27   58 1
  61   28   29 ar
  62   28   59 1
  63   29   60 1
  64   31   32 3

#	End of record

