#	Name: ASD05430099
#	Creating user name:	WinNT
#	Creation time:	15. 06. 2019 20:59

#	Modifying user name:	WinNT
#	Modification time:	15. 06. 2019 20:59

#	Program:	/corina/corina34_cracker 3.40 0067  02.08.2006

@<TRIPOS>MOLECULE
ASD05430099
  58   63    0    0    0
SMALL
NO_CHARGES


@<TRIPOS>ATOM
   1 F1            -8.6772     6.5066     3.7813 F       
   2 C2            -1.2050    -0.7499     0.0096 C.ar    
   3 C3            -0.0392    -0.0623     0.3169 C.ar    
   4 C4            -0.0974     1.3164     0.5450 C.ar    
   5 C5            -1.2946     1.9867     0.4665 C.ar    
   6 C6            -2.4681     1.2909     0.1570 C.ar    
   7 C7            -2.4099    -0.0863    -0.0765 C.ar    
   8 O8            -4.9390    -0.0422     0.1411 O.3     
   9 C9            -4.9032     1.3091    -0.0526 C.2     
  10 C10           -3.7527     2.0039     0.0728 C.2     
  11 C11           -6.2139    -0.6405     0.3867 C.3     
  12 C12           -7.2170     0.3106     1.0505 C.3     
  13 N13           -7.3195     1.5220     0.2357 N.pl3   
  14 C14           -6.1703     1.9825    -0.4051 C.2     
  15 C15           -8.5981     3.4060     1.0748 C.ar    
  16 C16           -9.7728     3.7181     1.7334 C.ar    
  17 C17           -9.8005     4.7587     2.6424 C.ar    
  18 C18           -8.6511     5.4888     2.8933 C.ar    
  19 C19           -7.4752     5.1753     2.2330 C.ar    
  20 C20           -7.4499     4.1342     1.3245 C.ar    
  21 C21           -6.7894    -1.3467    -0.8436 C.3     
  22 S22           -7.5954    -2.5627     0.2349 S.o     
  23 C23           -6.1108    -1.9887     1.1054 C.3     
  24 O24           -8.7475    -1.9795     0.8281 O.2     
  25 C25           -8.5677     2.2670     0.0885 C.3     
  26 C26           -8.6364     2.8191    -1.3397 C.3     
  27 O27           -7.4483     3.5442    -1.6402 O.3     
  28 N28           -6.2306     2.9369    -1.2727 N.2     
  29 C29           -0.8642    -2.2103    -0.1868 C.3     
  30 C30            0.6534    -2.2880     0.0457 C.3     
  31 N31            1.0671    -0.9157     0.3491 N.am    
  32 C32            2.3305    -0.5320     0.6190 C.2     
  33 O33            2.5926     0.6454     0.7468 O.2     
  34 C34            3.4177    -1.5657     0.7619 C.3     
  35 H35            0.8054     1.8583     0.7850 H       
  36 H36           -1.3295     3.0514     0.6443 H       
  37 H37           -3.3106    -0.6317    -0.3164 H       
  38 H38           -3.7750     3.0829     0.1113 H       
  39 H39           -8.1924    -0.1719     1.1135 H       
  40 H40           -6.8688     0.5703     2.0502 H       
  41 H41          -10.6693     3.1487     1.5373 H       
  42 H42          -10.7184     5.0026     3.1565 H       
  43 H43           -6.5780     5.7441     2.4280 H       
  44 H44           -6.5327     3.8895     0.8094 H       
  45 H45           -7.4969    -0.7312    -1.3991 H       
  46 H46           -6.0233    -1.7835    -1.4843 H       
  47 H47           -5.2145    -2.5488     0.8391 H       
  48 H48           -6.2496    -1.9111     2.1838 H       
  49 H49           -9.4141     1.6038     0.2667 H       
  50 H50           -8.7431     1.9925    -2.0423 H       
  51 H51           -9.4971     3.4817    -1.4303 H       
  52 H52           -1.3925    -2.8253     0.5418 H       
  53 H53           -1.1102    -2.5251    -1.2009 H       
  54 H54            0.8737    -2.9442     0.8877 H       
  55 H55            1.1558    -2.6442    -0.8537 H       
  56 H56            3.9225    -1.6968    -0.1953 H       
  57 H57            4.1379    -1.2345     1.5101 H       
  58 H58            2.9792    -2.5135     1.0742 H       
@<TRIPOS>BOND
   1    1   18 1
   2    2    3 ar
   3    2   29 1
   4    2    7 ar
   5    3    4 ar
   6    3   31 1
   7    4    5 ar
   8    4   35 1
   9    5    6 ar
  10    5   36 1
  11    6    7 ar
  12    6   10 1
  13    7   37 1
  14    8    9 1
  15    8   11 1
  16    9   10 2
  17    9   14 1
  18   10   38 1
  19   11   12 1
  20   11   21 1
  21   11   23 1
  22   12   13 1
  23   12   39 1
  24   12   40 1
  25   13   14 1
  26   13   25 1
  27   14   28 2
  28   15   16 ar
  29   15   20 ar
  30   15   25 1
  31   16   17 ar
  32   16   41 1
  33   17   18 ar
  34   17   42 1
  35   18   19 ar
  36   19   20 ar
  37   19   43 1
  38   20   44 1
  39   21   22 1
  40   21   45 1
  41   21   46 1
  42   22   23 1
  43   22   24 2
  44   23   47 1
  45   23   48 1
  46   25   26 1
  47   25   49 1
  48   26   27 1
  49   26   50 1
  50   26   51 1
  51   27   28 1
  52   29   30 1
  53   29   52 1
  54   29   53 1
  55   30   31 1
  56   30   54 1
  57   30   55 1
  58   31   32 am
  59   32   33 2
  60   32   34 1
  61   34   56 1
  62   34   57 1
  63   34   58 1

#	End of record

