#	Name: ASD01100025
#	Creating user name:	WinNT
#	Creation time:	15. 06. 2019 18:58

#	Modifying user name:	WinNT
#	Modification time:	15. 06. 2019 18:58

#	Program:	/corina/corina34_cracker 3.40 0067  02.08.2006

@<TRIPOS>MOLECULE
ASD01100025
  36   37    0    0    0
SMALL
NO_CHARGES


@<TRIPOS>ATOM
   1 C1             0.5521     0.6252    -1.2618 C.ar    
   2 C2             0.7785    -0.7379    -1.1911 C.ar    
   3 C3             1.9932    -1.2138    -0.7306 C.ar    
   4 C4             2.9797    -0.3275    -0.3413 C.ar    
   5 C5             2.7529     1.0343    -0.4121 C.ar    
   6 C6             1.5394     1.5105    -0.8722 C.ar    
   7 C7             3.8288     2.0002     0.0129 C.3     
   8 C8             3.3111     2.8666     1.1627 C.3     
   9 C9             3.0044     1.9800     2.3713 C.3     
  10 C10            4.3754     3.8977     1.5435 C.3     
  11 Cl11          -0.4613    -1.8505    -1.6797 Cl      
  12 C12            4.2016     2.8811    -1.1516 C.2     
  13 N13            5.2340     3.7406    -1.0430 N.am    
  14 O14            3.5725     2.8167    -2.1865 O.2     
  15 C15            5.5127     4.6303    -2.0800 C.ar    
  16 C16            4.5650     4.8652    -3.0742 C.ar    
  17 C17            4.8905     5.7591    -4.0830 C.ar    
  18 C18            6.1383     6.3639    -4.0408 C.ar    
  19 N19            6.9745     6.0825    -3.0609 N.ar    
  20 N20            6.6773     5.2600    -2.1214 N.ar    
  21 H21           -0.3943     0.9974    -1.6254 H       
  22 H22            2.1703    -2.2778    -0.6749 H       
  23 H23            3.9278    -0.6990     0.0185 H       
  24 H24            1.3628     2.5746    -0.9273 H       
  25 H25            4.7062     1.4443     0.3434 H       
  26 H26            2.4026     3.3810     0.8495 H       
  27 H27            3.9130     1.4657     2.6845 H       
  28 H28            2.6356     2.5973     3.1905 H       
  29 H29            2.2462     1.2455     2.1000 H       
  30 H30            4.6220     4.5042     0.6720 H       
  31 H31            3.9918     4.5400     2.3363 H       
  32 H32            5.2705     3.3836     1.8935 H       
  33 H33            5.7832     3.7404    -0.2434 H       
  34 H34            3.6071     4.3665    -3.0596 H       
  35 H35            4.1934     5.9776    -4.8784 H       
  36 H36            6.4249     7.0650    -4.8107 H       
@<TRIPOS>BOND
   1    1    2 ar
   2    1    6 ar
   3    1   21 1
   4    2    3 ar
   5    2   11 1
   6    3    4 ar
   7    3   22 1
   8    4    5 ar
   9    4   23 1
  10    5    6 ar
  11    5    7 1
  12    6   24 1
  13    7    8 1
  14    7   12 1
  15    7   25 1
  16    8    9 1
  17    8   10 1
  18    8   26 1
  19    9   27 1
  20    9   28 1
  21    9   29 1
  22   10   30 1
  23   10   31 1
  24   10   32 1
  25   12   13 am
  26   12   14 2
  27   13   15 1
  28   13   33 1
  29   15   16 ar
  30   15   20 ar
  31   16   17 ar
  32   16   34 1
  33   17   18 ar
  34   17   35 1
  35   18   19 ar
  36   18   36 1
  37   19   20 ar

#	End of record

