#	Name: ASD05720301
#	Creating user name:	WinNT
#	Creation time:	15. 06. 2019 21:02

#	Modifying user name:	WinNT
#	Modification time:	15. 06. 2019 21:02

#	Program:	/corina/corina34_cracker 3.40 0067  02.08.2006

@<TRIPOS>MOLECULE
ASD05720301
  63   68    0    0    0
SMALL
NO_CHARGES


@<TRIPOS>ATOM
   1 N1            -0.1614     1.3388     0.5833 N.am    
   2 C2            -0.1466    -0.0089     0.5828 C.2     
   3 O3             0.7773    -0.6069     1.0997 O.2     
   4 N4            -1.1558    -0.6938     0.0094 N.am    
   5 C5            -1.0871    -2.0850    -0.0912 C.ar    
   6 C6            -2.2443    -2.8471     0.0254 C.ar    
   7 C7            -2.1797    -4.2197    -0.0734 C.ar    
   8 C8            -0.9509    -4.8453    -0.2912 C.ar    
   9 C9             0.2091    -4.0775    -0.4083 C.ar    
  10 C10            0.1376    -2.7050    -0.3134 C.ar    
  11 C11           -1.6170    -8.4166     0.2404 C.ar    
  12 N12           -0.7725    -9.0364    -0.5670 N.ar    
  13 C13            0.0653    -8.3441    -1.3339 C.ar    
  14 C14            0.0396    -6.9353    -1.2730 C.ar    
  15 C15           -0.8780    -6.3192    -0.3973 C.ar    
  16 N16           -1.6765    -7.0942     0.3307 N.ar    
  17 N17            1.5881    -7.4918    -2.7384 N.2     
  18 N18            1.0265    -8.6754    -2.2432 N.pl3   
  19 C19            1.0167    -6.4651    -2.1762 C.2     
  20 C20            1.6502   -11.6158    -4.5501 C.3     
  21 C21            1.1771   -10.2196    -4.1370 C.3     
  22 C22            1.4066   -10.0353    -2.6338 C.3     
  23 C23            2.8893   -10.2621    -2.3232 C.3     
  24 C24            3.2963   -11.6566    -2.8064 C.3     
  25 O25            3.0283   -11.7716    -4.2053 O.3     
  26 C26           -4.2957    -9.2068     2.6512 C.3     
  27 C27           -3.3348    -8.3183     1.8457 C.3     
  28 N28           -2.4753    -9.1762     1.0166 N.3     
  29 C29           -3.2757   -10.0848     0.1822 C.3     
  30 C30           -4.2399   -10.8696     1.0854 C.3     
  31 C31           -3.4216   -11.4455     2.2654 C.3     
  32 C32           -3.4594   -10.3207     3.3247 C.3     
  33 O33           -5.1298    -9.9097     1.7011 O.3     
  34 C34            0.9356     2.0832     1.2067 C.3     
  35 H35           -0.8965     1.8158     0.1674 H       
  36 H36           -1.9299    -0.2204    -0.3335 H       
  37 H37           -3.1947    -2.3626     0.1938 H       
  38 H38           -3.0787    -4.8112     0.0179 H       
  39 H39            1.1612    -4.5588    -0.5768 H       
  40 H40            1.0341    -2.1102    -0.4077 H       
  41 H41            1.2512    -5.4286    -2.3689 H       
  42 H42            1.0581   -12.3689    -4.0303 H       
  43 H43            1.5289   -11.7370    -5.6265 H       
  44 H44            1.7413    -9.4663    -4.6867 H       
  45 H45            0.1151   -10.1145    -4.3589 H       
  46 H46            0.8027   -10.7555    -2.0817 H       
  47 H47            3.4882    -9.5096    -2.8363 H       
  48 H48            3.0518   -10.1873    -1.2480 H       
  49 H49            4.3608   -11.8072    -2.6266 H       
  50 H50            2.7257   -12.4102    -2.2637 H       
  51 H51           -4.8748    -8.6330     3.3748 H       
  52 H52           -3.9078    -7.6478     1.2052 H       
  53 H53           -2.7178    -7.7347     2.5289 H       
  54 H54           -3.8457    -9.5060    -0.5446 H       
  55 H55           -2.6159   -10.7792    -0.3381 H       
  56 H56           -4.7737   -11.6462     0.5376 H       
  57 H57           -3.8911   -12.3504     2.6512 H       
  58 H58           -2.3956   -11.6469     1.9575 H       
  59 H59           -2.4521    -9.9650     3.5414 H       
  60 H60           -3.9477   -10.6685     4.2350 H       
  61 H61            0.7503     3.1529     1.1092 H       
  62 H62            0.9993     1.8202     2.2625 H       
  63 H63            1.8734     1.8304     0.7120 H       
@<TRIPOS>BOND
   1    1    2 am
   2    1   34 1
   3    1   35 1
   4    2    3 2
   5    2    4 am
   6    4    5 1
   7    4   36 1
   8    5    6 ar
   9    5   10 ar
  10    6    7 ar
  11    6   37 1
  12    7    8 ar
  13    7   38 1
  14    8    9 ar
  15    8   15 1
  16    9   10 ar
  17    9   39 1
  18   10   40 1
  19   11   12 ar
  20   11   16 ar
  21   11   28 1
  22   12   13 ar
  23   13   14 ar
  24   13   18 1
  25   14   15 ar
  26   14   19 1
  27   15   16 ar
  28   17   18 1
  29   17   19 2
  30   18   22 1
  31   19   41 1
  32   20   21 1
  33   20   25 1
  34   20   42 1
  35   20   43 1
  36   21   22 1
  37   21   44 1
  38   21   45 1
  39   22   23 1
  40   22   46 1
  41   23   24 1
  42   23   47 1
  43   23   48 1
  44   24   25 1
  45   24   49 1
  46   24   50 1
  47   26   27 1
  48   26   32 1
  49   26   33 1
  50   26   51 1
  51   27   28 1
  52   27   52 1
  53   27   53 1
  54   28   29 1
  55   29   30 1
  56   29   54 1
  57   29   55 1
  58   30   31 1
  59   30   33 1
  60   30   56 1
  61   31   32 1
  62   31   57 1
  63   31   58 1
  64   32   59 1
  65   32   60 1
  66   34   61 1
  67   34   62 1
  68   34   63 1

#	End of record

