#	Name: ASD04880379
#	Creating user name:	WinNT
#	Creation time:	15. 06. 2019 20:53

#	Modifying user name:	WinNT
#	Modification time:	15. 06. 2019 20:53

#	Program:	/corina/corina34_cracker 3.40 0067  02.08.2006

@<TRIPOS>MOLECULE
ASD04880379
  37   40    0    0    0
SMALL
NO_CHARGES


@<TRIPOS>ATOM
   1 C1            -0.0144     1.2118     0.0087 C.2     
   2 O2             0.0436    -0.0026     0.0315 O.2     
   3 N3             1.1185     1.9396    -0.0483 N.am    
   4 N4             1.1860     3.3240    -0.1911 N.2     
   5 C5             2.3866     3.7922    -0.2200 C.2     
   6 C6             3.3750     2.6560    -0.0857 C.3     
   7 C7             2.4859     1.4026     0.0364 C.3     
   8 N8             1.3323     8.6655    -0.7432 N.pl3   
   9 C9             2.1669     9.7447    -0.8414 C.2     
  10 C10            3.4469     9.3415    -0.7787 C.2     
  11 C11            3.4310     7.8854    -0.6282 C.ar    
  12 C12            4.4297     6.9133    -0.5108 C.ar    
  13 C13            4.0898     5.6004    -0.3804 C.ar    
  14 C14            2.7410     5.2154    -0.3620 C.ar    
  15 C15            1.7352     6.1721    -0.4779 C.ar    
  16 C16            2.0734     7.5113    -0.6116 C.ar    
  17 C17           -1.3275     1.8895     0.0373 C.ar    
  18 C18           -2.5036     1.1430    -0.0542 C.ar    
  19 C19           -3.7276     1.7832    -0.0263 C.ar    
  20 C20           -3.7879     3.1628     0.0918 C.ar    
  21 C21           -2.6252     3.9063     0.1827 C.ar    
  22 C22           -1.3968     3.2780     0.1618 C.ar    
  23 F23           -4.8675     1.0633    -0.1147 F       
  24 H24            4.0095     2.5947    -0.9699 H       
  25 H25            3.9802     2.7799     0.8124 H       
  26 H26            2.6454     0.9088     0.9950 H       
  27 H27            2.6799     0.7155    -0.7872 H       
  28 H28            0.3633     8.7069    -0.7596 H       
  29 H29            1.8446    10.7694    -0.9528 H       
  30 H30            4.3221     9.9722    -0.8301 H       
  31 H31            5.4700     7.2032    -0.5242 H       
  32 H32            4.8631     4.8519    -0.2903 H       
  33 H33            0.6975     5.8731    -0.4642 H       
  34 H34           -2.4567     0.0680    -0.1469 H       
  35 H35           -4.7467     3.6594     0.1125 H       
  36 H36           -2.6789     4.9810     0.2742 H       
  37 H37           -0.4903     3.8602     0.2375 H       
@<TRIPOS>BOND
   1    1    2 2
   2    1    3 am
   3    1   17 1
   4    3    4 1
   5    3    7 1
   6    4    5 2
   7    5    6 1
   8    5   14 1
   9    6    7 1
  10    6   24 1
  11    6   25 1
  12    7   26 1
  13    7   27 1
  14    8    9 1
  15    8   16 1
  16    8   28 1
  17    9   10 2
  18    9   29 1
  19   10   11 1
  20   10   30 1
  21   11   12 ar
  22   11   16 ar
  23   12   13 ar
  24   12   31 1
  25   13   14 ar
  26   13   32 1
  27   14   15 ar
  28   15   16 ar
  29   15   33 1
  30   17   18 ar
  31   17   22 ar
  32   18   19 ar
  33   18   34 1
  34   19   20 ar
  35   19   23 1
  36   20   21 ar
  37   20   35 1
  38   21   22 ar
  39   21   36 1
  40   22   37 1

#	End of record

