#	Name: ASD01916223
#	Creating user name:	WinNT
#	Creation time:	15. 06. 2019 20:06

#	Modifying user name:	WinNT
#	Modification time:	15. 06. 2019 20:06

#	Program:	/corina/corina34_cracker 3.40 0067  02.08.2006

@<TRIPOS>MOLECULE
ASD01916223
  29   31    0    0    0
SMALL
NO_CHARGES


@<TRIPOS>ATOM
   1 C1            -0.0161     1.3393     0.0094 C.2     
   2 N2             0.0021    -0.0041     0.0020 N.am    
   3 C3             1.2019    -0.6754    -0.0130 C.2     
   4 C4             2.4424     0.1023    -0.0203 C.2     
   5 C5             2.3546     1.4489    -0.0118 C.2     
   6 N6             1.1210     2.0555     0.0024 N.am    
   7 N7             0.9497    -1.9674    -0.0176 N.2     
   8 C8            -0.3766    -2.1596    -0.0059 C.2     
   9 C9            -0.9867    -0.9587     0.0063 C.2     
  10 O10           -1.0846     1.9196     0.0176 O.2     
  11 C11           -1.0704    -3.4974    -0.0073 C.3     
  12 O12           -2.4856    -3.3001     0.0069 O.3     
  13 C13           -3.2639    -4.4141     0.0077 C.ar    
  14 C14           -4.6462    -4.2961     0.0212 C.ar    
  15 C15           -5.4351    -5.4300     0.0219 C.ar    
  16 C16           -4.8483    -6.6819     0.0093 C.ar    
  17 C17           -3.4710    -6.8023    -0.0037 C.ar    
  18 C18           -2.6776    -5.6714    -0.0107 C.ar    
  19 Cl19           3.7976     2.4139    -0.0195 Cl      
  20 H20            3.4039    -0.3896    -0.0317 H       
  21 H21            1.0701     3.0242     0.0081 H       
  22 H22           -2.0517    -0.7797     0.0178 H       
  23 H23           -0.7898    -4.0514    -0.9031 H       
  24 H24           -0.7733    -4.0617     0.8767 H       
  25 H25           -5.1050    -3.3184     0.0314 H       
  26 H26           -6.5112    -5.3387     0.0328 H       
  27 H27           -5.4668    -7.5673     0.0099 H       
  28 H28           -3.0150    -7.7813    -0.0128 H       
  29 H29           -1.6019    -5.7659    -0.0258 H       
@<TRIPOS>BOND
   1    1    2 am
   2    1    6 am
   3    1   10 2
   4    2    3 1
   5    2    9 1
   6    3    4 1
   7    3    7 2
   8    4    5 2
   9    4   20 1
  10    5    6 1
  11    5   19 1
  12    6   21 1
  13    7    8 1
  14    8    9 2
  15    8   11 1
  16    9   22 1
  17   11   12 1
  18   11   23 1
  19   11   24 1
  20   12   13 1
  21   13   14 ar
  22   13   18 ar
  23   14   15 ar
  24   14   25 1
  25   15   16 ar
  26   15   26 1
  27   16   17 ar
  28   16   27 1
  29   17   18 ar
  30   17   28 1
  31   18   29 1

#	End of record

