#	Name: ASD06572001
#	Creating user name:	WinNT
#	Creation time:	15. 06. 2019 21:06

#	Modifying user name:	WinNT
#	Modification time:	15. 06. 2019 21:06

#	Program:	/corina/corina34_cracker 3.40 0067  02.08.2006

@<TRIPOS>MOLECULE
ASD06572001
  55   58    0    0    0
SMALL
NO_CHARGES


@<TRIPOS>ATOM
   1 C1             1.7780     3.5493     0.2147 C.3     
   2 C2             0.8424     2.5524    -0.4599 C.3     
   3 C3             0.6021     1.3179     0.4152 C.3     
   4 C4             1.9075     0.7354     0.9118 C.3     
   5 C5             2.8533     1.7429     1.5807 C.3     
   6 C6             3.1025     2.8761     0.5609 C.3     
   7 C7             1.7305    -0.5157     1.7604 C.3     
   8 C8             3.0846    -1.2353     1.9425 C.3     
   9 C9             4.0472    -0.2889     2.6058 C.3     
  10 C10            4.1558     1.0117     1.7893 C.3     
  11 C11            5.4845    -0.6739     2.7687 C.ar    
  12 C12            6.2330     0.5217     2.7545 C.ar    
  13 C13            5.3019     1.7005     2.5356 C.3     
  14 C14            6.1154    -1.8906     2.9225 C.ar    
  15 C15            7.4980    -1.8846     3.0758 C.ar    
  16 C16            8.2272    -0.7099     3.0779 C.ar    
  17 C17            7.6024     0.5250     2.9164 C.ar    
  18 O18            9.5752    -0.7588     3.2415 O.3     
  19 C19            5.3703    -3.2015     2.9338 C.3     
  20 C20           -0.3868     1.6405     1.5299 C.3     
  21 C21           -0.0767     0.2717    -0.5046 C.3     
  22 C22            2.3088     2.3737     2.8524 C.3     
  23 C23            3.5700    -0.0552     4.0402 C.3     
  24 H24            2.4509     0.3891    -0.0037 H       
  25 H25            1.9806     4.3683    -0.4926 H       
  26 H26            1.3105     3.9839     1.0914 H       
  27 H27           -0.1198     3.0371    -0.6533 H       
  28 H28            1.2696     2.2361    -1.4134 H       
  29 H29            3.5444     2.4446    -0.3361 H       
  30 H30            3.7861     3.5987     1.0006 H       
  31 H31            1.3081    -0.2676     2.7263 H       
  32 H32            1.0547    -1.2139     1.2609 H       
  33 H33            2.9294    -2.1159     2.5695 H       
  34 H34            3.4685    -1.5405     0.9682 H       
  35 H35            4.5467     0.7497     0.7717 H       
  36 H36            5.7813     2.4469     1.8999 H       
  37 H37            4.9914     2.1364     3.4756 H       
  38 H38            8.0125    -2.8267     3.1970 H       
  39 H39            8.1677     1.4454     2.9195 H       
  40 H40           10.0694    -0.8359     2.4139 H       
  41 H41            5.3012    -3.5889     1.9173 H       
  42 H42            5.9033    -3.9170     3.5599 H       
  43 H43            4.3677    -3.0461     3.3323 H       
  44 H44           -1.3673     1.8421     1.0986 H       
  45 H45           -0.4566     0.7920     2.2105 H       
  46 H46           -0.0434     2.5182     2.0775 H       
  47 H47            0.5832     0.0406    -1.3408 H       
  48 H48           -0.2753    -0.6371     0.0635 H       
  49 H49           -1.0154     0.6758    -0.8836 H       
  50 H50            1.9392     1.5921     3.5162 H       
  51 H51            3.1030     2.9288     3.3516 H       
  52 H52            1.4937     3.0524     2.6011 H       
  53 H53            3.7291    -0.9593     4.6279 H       
  54 H54            4.1325     0.7681     4.4806 H       
  55 H55            2.5085     0.1922     4.0343 H       
@<TRIPOS>BOND
   1    1    2 1
   2    1    6 1
   3    1   25 1
   4    1   26 1
   5    2    3 1
   6    2   27 1
   7    2   28 1
   8    3    4 1
   9    3   20 1
  10    3   21 1
  11    4    5 1
  12    4    7 1
  13    4   24 1
  14    5    6 1
  15    5   22 1
  16    5   10 1
  17    6   29 1
  18    6   30 1
  19    7    8 1
  20    7   31 1
  21    7   32 1
  22    8    9 1
  23    8   33 1
  24    8   34 1
  25    9   11 1
  26    9   23 1
  27    9   10 1
  28   10   13 1
  29   10   35 1
  30   11   12 ar
  31   11   14 ar
  32   12   13 1
  33   12   17 ar
  34   13   36 1
  35   13   37 1
  36   14   15 ar
  37   14   19 1
  38   15   16 ar
  39   15   38 1
  40   16   17 ar
  41   16   18 1
  42   17   39 1
  43   18   40 1
  44   19   41 1
  45   19   42 1
  46   19   43 1
  47   20   44 1
  48   20   45 1
  49   20   46 1
  50   21   47 1
  51   21   48 1
  52   21   49 1
  53   22   50 1
  54   22   51 1
  55   22   52 1
  56   23   53 1
  57   23   54 1
  58   23   55 1

#	End of record

