#	Name: ASD01882708
#	Creating user name:	WinNT
#	Creation time:	15. 06. 2019 19:45

#	Modifying user name:	WinNT
#	Modification time:	15. 06. 2019 19:45

#	Program:	/corina/corina34_cracker 3.40 0067  02.08.2006

@<TRIPOS>MOLECULE
ASD01882708
  36   38    0    0    0
SMALL
NO_CHARGES


@<TRIPOS>ATOM
   1 C1            -0.0159     1.3220     0.0093 C.2     
   2 N2             0.0021    -0.0041     0.0020 N.2     
   3 C3             1.1523    -0.6857    -0.0126 C.2     
   4 C4             2.3835     0.0173    -0.0206 C.2     
   5 C5             2.3523     1.3664    -0.0131 C.2     
   6 N6             1.1484     2.0132     0.0019 N.pl3   
   7 O7            -1.0993     2.1290     0.0184 O.3     
   8 C8             0.8540     3.4562     0.0125 C.3     
   9 C9            -0.6831     3.5211     0.0242 C.3     
  10 O10            1.1423    -1.9071    -0.0187 O.2     
  11 C11           -1.1944     4.2379    -1.2270 C.3     
  12 O12           -2.6209     4.3119    -1.1842 O.3     
  13 C13           -3.2386     4.9234    -2.2289 C.ar    
  14 C14           -4.6218     5.0305    -2.2523 C.ar    
  15 C15           -5.2472     5.6524    -3.3153 C.ar    
  16 C16           -4.4961     6.1677    -4.3558 C.ar    
  17 C17           -3.1179     6.0618    -4.3350 C.ar    
  18 C18           -2.4871     5.4465    -3.2708 C.ar    
  19 C19           -5.1811     6.8453    -5.5145 C.3     
  20 C20           -6.7495     5.7691    -3.3414 C.3     
  21 H21            3.3237    -0.5140    -0.0321 H       
  22 H22            3.2727     1.9314    -0.0185 H       
  23 H23            1.2651     3.9237     0.9072 H       
  24 H24            1.2480     3.9334    -0.8848 H       
  25 H25           -1.0396     4.0220     0.9243 H       
  26 H26           -0.7793     5.2451    -1.2639 H       
  27 H27           -0.8857     3.6850    -2.1142 H       
  28 H28           -5.2089     4.6276    -1.4403 H       
  29 H29           -2.5335     6.4647    -5.1490 H       
  30 H30           -1.4100     5.3683    -3.2527 H       
  31 H31           -5.2848     7.9096    -5.3033 H       
  32 H32           -4.5861     6.7103    -6.4177 H       
  33 H33           -6.1680     6.4060    -5.6605 H       
  34 H34           -7.0502     6.6980    -2.8568 H       
  35 H35           -7.0960     5.7697    -4.3748 H       
  36 H36           -7.1888     4.9240    -2.8113 H       
@<TRIPOS>BOND
   1    1    2 2
   2    1    6 1
   3    1    7 1
   4    2    3 1
   5    3    4 1
   6    3   10 2
   7    4    5 2
   8    4   21 1
   9    5    6 1
  10    5   22 1
  11    6    8 1
  12    7    9 1
  13    8    9 1
  14    8   23 1
  15    8   24 1
  16    9   11 1
  17    9   25 1
  18   11   12 1
  19   11   26 1
  20   11   27 1
  21   12   13 1
  22   13   14 ar
  23   13   18 ar
  24   14   15 ar
  25   14   28 1
  26   15   16 ar
  27   15   20 1
  28   16   17 ar
  29   16   19 1
  30   17   18 ar
  31   17   29 1
  32   18   30 1
  33   19   31 1
  34   19   32 1
  35   19   33 1
  36   20   34 1
  37   20   35 1
  38   20   36 1

#	End of record

