#	Name: ASD00170773
#	Creating user name:	WinNT
#	Creation time:	15. 06. 2019 18:32

#	Modifying user name:	WinNT
#	Modification time:	15. 06. 2019 18:32

#	Program:	/corina/corina34_cracker 3.40 0067  02.08.2006

@<TRIPOS>MOLECULE
ASD00170773
  57   61    0    0    0
SMALL
NO_CHARGES


@<TRIPOS>ATOM
   1 Cl1            1.3366     3.6438    -4.7603 Cl      
   2 C2             0.9716     4.2404    -3.1714 C.ar    
   3 C3             1.9041     4.1118    -2.1552 C.ar    
   4 C4             1.6202     4.5842    -0.8912 C.ar    
   5 C5             0.3896     5.1930    -0.6367 C.ar    
   6 C6            -0.5463     5.3197    -1.6651 C.ar    
   7 C7            -0.2488     4.8482    -2.9263 C.ar    
   8 C8             0.0788     5.7011     0.7164 C.2     
   9 O9             0.8658     5.5249     1.6284 O.2     
  10 C10           -1.1766     6.4166     0.9599 C.2     
  11 C11           -2.2941     5.8277     1.5008 C.2     
  12 S12           -3.5652     6.9539     1.6422 S.3     
  13 C13           -2.5973     8.2518     0.9659 C.2     
  14 C14           -1.3681     7.8168     0.6624 C.2     
  15 C15           -0.2989     8.6942     0.0642 C.3     
  16 C16            0.5524     9.2962     1.1839 C.3     
  17 C17            1.3178     8.1807     1.8985 C.3     
  18 C18            1.5459    10.2957     0.5881 C.3     
  19 C19           -0.3551    10.0142     2.1848 C.3     
  20 C20           -3.0729     9.6384     0.7634 C.2     
  21 C21           -2.3341    10.7105     0.3714 C.2     
  22 O22           -3.1407    11.7811     0.3085 O.3     
  23 C23           -4.3960    11.4512     0.6478 C.2     
  24 C24           -4.4415    10.1402     0.9379 C.2     
  25 N25           -2.3767     4.4956     1.8802 N.am    
  26 C26           -1.9684     4.0161     3.0689 C.2     
  27 O27           -1.4772     4.6705     3.9663 O.2     
  28 C28           -2.2182     2.5598     3.1003 C.ar    
  29 C29           -2.7947     2.2405     1.8537 C.ar    
  30 C30           -2.8807     3.5146     1.1099 C.2     
  31 O31           -3.3248     3.6518    -0.0121 O.2     
  32 C32           -3.1472     0.9301     1.5731 C.ar    
  33 C33           -2.9303    -0.0579     2.5209 C.ar    
  34 C34           -2.3652     0.2552     3.7430 C.ar    
  35 C35           -2.0077     1.5616     4.0380 C.ar    
  36 H36            2.8554     3.6404    -2.3533 H       
  37 H37            2.3479     4.4831    -0.0997 H       
  38 H38           -1.4999     5.7893    -1.4740 H       
  39 H39           -0.9719     4.9456    -3.7225 H       
  40 H40            0.3342     8.0985    -0.5934 H       
  41 H41           -0.7652     9.4958    -0.5087 H       
  42 H42            1.9644     7.6692     1.1855 H       
  43 H43            1.9243     8.6095     2.6962 H       
  44 H44            0.6101     7.4686     2.3230 H       
  45 H45            1.0006    11.0904     0.0790 H       
  46 H46            2.1524    10.7245     1.3858 H       
  47 H47            2.1924     9.7842    -0.1249 H       
  48 H48           -1.2387     9.4052     2.3759 H       
  49 H49            0.1861    10.1720     3.1177 H       
  50 H50           -0.6592    10.9768     1.7739 H       
  51 H51           -1.2774    10.7019     0.1484 H       
  52 H52           -5.2359    12.1294     0.6783 H       
  53 H53           -5.3074     9.5724     1.2448 H       
  54 H54           -3.5894     0.6797     0.6202 H       
  55 H55           -3.2051    -1.0794     2.3031 H       
  56 H56           -2.2015    -0.5234     4.4733 H       
  57 H57           -1.5664     1.8003     4.9944 H       
@<TRIPOS>BOND
   1    1    2 1
   2    2    3 ar
   3    2    7 ar
   4    3    4 ar
   5    3   36 1
   6    4    5 ar
   7    4   37 1
   8    5    6 ar
   9    5    8 1
  10    6    7 ar
  11    6   38 1
  12    7   39 1
  13    8    9 2
  14    8   10 1
  15   10   11 2
  16   10   14 1
  17   11   12 1
  18   11   25 1
  19   12   13 1
  20   13   14 2
  21   13   20 1
  22   14   15 1
  23   15   16 1
  24   15   40 1
  25   15   41 1
  26   16   17 1
  27   16   18 1
  28   16   19 1
  29   17   42 1
  30   17   43 1
  31   17   44 1
  32   18   45 1
  33   18   46 1
  34   18   47 1
  35   19   48 1
  36   19   49 1
  37   19   50 1
  38   20   21 2
  39   20   24 1
  40   21   22 1
  41   21   51 1
  42   22   23 1
  43   23   24 2
  44   23   52 1
  45   24   53 1
  46   25   26 am
  47   25   30 am
  48   26   27 2
  49   26   28 1
  50   28   29 ar
  51   28   35 ar
  52   29   30 1
  53   29   32 ar
  54   30   31 2
  55   32   33 ar
  56   32   54 1
  57   33   34 ar
  58   33   55 1
  59   34   35 ar
  60   34   56 1
  61   35   57 1

#	End of record

