#	Name: ASD01411187
#	Creating user name:	WinNT
#	Creation time:	15. 06. 2019 19:19

#	Modifying user name:	WinNT
#	Modification time:	15. 06. 2019 19:19

#	Program:	/corina/corina34_cracker 3.40 0067  02.08.2006

@<TRIPOS>MOLECULE
ASD01411187
  81   85    0    0    0
SMALL
NO_CHARGES


@<TRIPOS>ATOM
   1 C1            -0.2310     0.0403     0.6357 C.ar    
   2 C2             0.2169    -0.3277     1.8967 C.ar    
   3 C3             1.5474    -0.6534     2.0728 C.ar    
   4 N4             2.3919    -0.6183     1.0599 N.ar    
   5 C5             2.0029    -0.2727    -0.1565 C.ar    
   6 C6             0.6796     0.0673    -0.4064 C.ar    
   7 C7             5.1483     0.5240    -0.9879 C.ar    
   8 C8             4.2087    -0.4931    -0.8686 C.ar    
   9 O9             2.9052    -0.2501    -1.1694 O.3     
  10 C10            6.4741     0.2880    -0.6856 C.ar    
  11 C11            6.8787    -0.9695    -0.2599 C.ar    
  12 C12            5.9349    -2.0007    -0.1369 C.ar    
  13 C13            4.5954    -1.7517    -0.4453 C.ar    
  14 N14            8.2182    -1.2075     0.0444 N.am    
  15 C15            8.6649    -1.1999     1.4396 C.3     
  16 C16            9.1022    -1.4445    -0.9450 C.2     
  17 C17            8.6773    -1.3060    -2.3842 C.3     
  18 O18           10.2396    -1.7691    -0.6770 O.2     
  19 C19            9.4273    -2.3303    -3.2381 C.3     
  20 C20            9.0018     0.1052    -2.8782 C.3     
  21 C21           10.5076     0.3516    -2.7650 C.3     
  22 C22           11.2576    -0.6727    -3.6189 C.3     
  23 C23           10.9331    -2.0840    -3.1249 C.3     
  24 C24           12.7634    -0.4264    -3.5057 C.3     
  25 C25            9.5285     0.0376     1.6919 C.3     
  26 C26            7.4468    -1.1691     2.3649 C.3     
  27 C27            8.7075     1.2980     1.4125 C.3     
  28 C28            6.6258     0.0913     2.0855 C.3     
  29 C29            7.4894     1.3289     2.3378 C.3     
  30 O30           10.6661     0.0088     0.8277 O.3     
  31 C31           11.8238     0.6478     1.3693 C.3     
  32 C32           12.9565     0.5582     0.3793 C.ar    
  33 C33           13.1316     1.5547    -0.5627 C.ar    
  34 C34           14.1705     1.4725    -1.4708 C.ar    
  35 C35           15.0347     0.3941    -1.4367 C.ar    
  36 C36           14.8601    -0.6019    -0.4941 C.ar    
  37 C37           13.8238    -0.5176     0.4168 C.ar    
  38 C38            6.3549    -3.3396     0.3139 C.2     
  39 O39            7.5100    -3.5381     0.6348 O.2     
  40 O40            5.4580    -4.3438     0.3702 O.3     
  41 C41            0.2411     0.4603    -1.7936 C.3     
  42 F42           -1.1266     0.7543    -1.7846 F       
  43 F43            0.9578     1.5884    -2.2072 F       
  44 F44            0.4851    -0.5968    -2.6769 F       
  45 H45           -1.2673     0.2953     0.4703 H       
  46 H46           -0.4676    -0.3587     2.7315 H       
  47 H47            1.9010    -0.9400     3.0521 H       
  48 H48            4.8400     1.5032    -1.3233 H       
  49 H49            7.1984     1.0835    -0.7808 H       
  50 H50            3.8632    -2.5403    -0.3531 H       
  51 H51            9.2498    -2.0979     1.6387 H       
  52 H52            7.6046    -1.4815    -2.4649 H       
  53 H53            9.1962    -3.3357    -2.8862 H       
  54 H54            9.1201    -2.2302    -4.2791 H       
  55 H55            8.6945     0.2053    -3.9192 H       
  56 H56            8.4675     0.8349    -2.2699 H       
  57 H57           10.7387     1.3569    -3.1170 H       
  58 H58           10.8149     0.2514    -1.7240 H       
  59 H59           10.9503    -0.5726    -4.6599 H       
  60 H60           11.2404    -2.1841    -2.0839 H       
  61 H61           11.4674    -2.8137    -3.7332 H       
  62 H62           13.0707    -0.5265    -2.4647 H       
  63 H63           13.2977    -1.1561    -4.1141 H       
  64 H64           12.9945     0.5790    -3.8577 H       
  65 H65            9.8608     0.0432     2.7300 H       
  66 H66            6.8316    -2.0507     2.1852 H       
  67 H67            7.7792    -1.1635     3.4030 H       
  68 H68            9.3227     2.1797     1.5922 H       
  69 H69            8.3751     1.2924     0.3744 H       
  70 H70            6.2934     0.0857     1.0474 H       
  71 H71            5.7580     0.1133     2.7447 H       
  72 H72            7.8217     1.3345     3.3759 H       
  73 H73            6.9045     2.2268     2.1387 H       
  74 H74           11.5997     1.6952     1.5712 H       
  75 H75           12.1118     0.1526     2.2966 H       
  76 H76           12.4565     2.3972    -0.5893 H       
  77 H77           14.3069     2.2507    -2.2072 H       
  78 H78           15.8460     0.3295    -2.1466 H       
  79 H79           15.5351    -1.4446    -0.4677 H       
  80 H80           13.6874    -1.2957     1.1532 H       
  81 H81            5.7804    -5.2040     0.6720 H       
@<TRIPOS>BOND
   1    1    2 ar
   2    1    6 ar
   3    1   45 1
   4    2    3 ar
   5    2   46 1
   6    3    4 ar
   7    3   47 1
   8    4    5 ar
   9    5    6 ar
  10    5    9 1
  11    6   41 1
  12    7    8 ar
  13    7   10 ar
  14    7   48 1
  15    8    9 1
  16    8   13 ar
  17   10   11 ar
  18   10   49 1
  19   11   12 ar
  20   11   14 1
  21   12   13 ar
  22   12   38 1
  23   13   50 1
  24   14   16 am
  25   14   15 1
  26   15   25 1
  27   15   26 1
  28   15   51 1
  29   16   18 2
  30   16   17 1
  31   17   19 1
  32   17   20 1
  33   17   52 1
  34   19   23 1
  35   19   53 1
  36   19   54 1
  37   20   21 1
  38   20   55 1
  39   20   56 1
  40   21   22 1
  41   21   57 1
  42   21   58 1
  43   22   23 1
  44   22   24 1
  45   22   59 1
  46   23   60 1
  47   23   61 1
  48   24   62 1
  49   24   63 1
  50   24   64 1
  51   25   27 1
  52   25   30 1
  53   25   65 1
  54   26   28 1
  55   26   66 1
  56   26   67 1
  57   27   29 1
  58   27   68 1
  59   27   69 1
  60   28   29 1
  61   28   70 1
  62   28   71 1
  63   29   72 1
  64   29   73 1
  65   30   31 1
  66   31   32 1
  67   31   74 1
  68   31   75 1
  69   32   33 ar
  70   32   37 ar
  71   33   34 ar
  72   33   76 1
  73   34   35 ar
  74   34   77 1
  75   35   36 ar
  76   35   78 1
  77   36   37 ar
  78   36   79 1
  79   37   80 1
  80   38   39 2
  81   38   40 1
  82   40   81 1
  83   41   42 1
  84   41   43 1
  85   41   44 1

#	End of record

