#	Name: ASD01560002
#	Creating user name:	WinNT
#	Creation time:	15. 06. 2019 19:22

#	Modifying user name:	WinNT
#	Modification time:	15. 06. 2019 19:22

#	Program:	/corina/corina34_cracker 3.40 0067  02.08.2006

@<TRIPOS>MOLECULE
ASD01560002
  67   72    0    0    0
SMALL
NO_CHARGES


@<TRIPOS>ATOM
   1 C1             1.1549     1.9190     0.9821 C.3     
   2 C2             2.5611     2.4077     0.5574 C.3     
   3 C3             2.4433     2.6204    -0.9643 C.3     
   4 O4             1.1129     2.2346    -1.3480 O.3     
   5 C5             0.2706     2.4164    -0.1895 C.3     
   6 C6             3.4683     1.7484    -1.6924 C.3     
   7 O7             3.4317     2.0377    -3.0913 O.3     
   8 C8             4.3562     1.2727    -3.8674 C.3     
   9 C9             5.7595     1.5489    -3.3927 C.ar    
  10 C10            4.0518    -0.1947    -3.7085 C.ar    
  11 C11            4.2321     1.6572    -5.3192 C.ar    
  12 C12            3.0181     2.0916    -5.8178 C.ar    
  13 C13            2.9043     2.4443    -7.1496 C.ar    
  14 C14            4.0045     2.3630    -7.9826 C.ar    
  15 C15            5.2186     1.9294    -7.4837 C.ar    
  16 C16            5.3335     1.5809    -6.1510 C.ar    
  17 C17            6.7381     0.5821    -3.5290 C.ar    
  18 C18            8.0254     0.8354    -3.0936 C.ar    
  19 C19            8.3342     2.0558    -2.5224 C.ar    
  20 C20            7.3559     3.0229    -2.3870 C.ar    
  21 C21            6.0696     2.7712    -2.8263 C.ar    
  22 C22            3.3527    -0.8661    -4.6940 C.ar    
  23 C23            3.0735    -2.2121    -4.5483 C.ar    
  24 C24            3.4938    -2.8868    -3.4174 C.ar    
  25 C25            4.1938    -2.2155    -2.4323 C.ar    
  26 C26            4.4767    -0.8705    -2.5800 C.ar    
  27 O27            3.5453     1.4135     0.8488 O.3     
  28 O28            1.1182     0.4937     1.0793 O.3     
  29 N29           -0.9430     1.6034    -0.3013 N.pl3   
  30 C30           -2.1333     1.8356     0.3314 C.2     
  31 C31           -2.9938     0.8101    -0.0721 C.2     
  32 N32           -2.3007     0.0129    -0.9181 N.2     
  33 C33           -1.0940     0.4808    -1.0592 C.2     
  34 N34           -2.5746     2.7740     1.1808 N.2     
  35 C35           -3.7943     2.7502     1.6403 C.2     
  36 N36           -4.6798     1.7837     1.2897 N.am    
  37 C37           -4.3163     0.7997     0.4372 C.2     
  38 O38           -5.1043    -0.0730     0.1156 O.2     
  39 C39           -6.0380     1.8068     1.8383 C.3     
  40 H40            0.8508     2.3790     1.9223 H       
  41 H41            2.8066     3.3445     1.0577 H       
  42 H42            2.6089     3.6704    -1.2057 H       
  43 H43            0.0182     3.4689    -0.0599 H       
  44 H44            4.4649     1.9581    -1.3040 H       
  45 H45            3.2297     0.6970    -1.5324 H       
  46 H46            2.1586     2.1552    -5.1670 H       
  47 H47            1.9557     2.7830    -7.5393 H       
  48 H48            3.9153     2.6378    -9.0232 H       
  49 H49            6.0780     1.8656    -8.1346 H       
  50 H50            6.2821     1.2422    -5.7612 H       
  51 H51            6.4968    -0.3713    -3.9752 H       
  52 H52            8.7897     0.0798    -3.1993 H       
  53 H53            9.3398     2.2534    -2.1816 H       
  54 H54            7.5971     3.9763    -1.9404 H       
  55 H55            5.3053     3.5268    -2.7206 H       
  56 H56            3.0242    -0.3391    -5.5776 H       
  57 H57            2.5266    -2.7366    -5.3179 H       
  58 H58            3.2751    -3.9382    -3.3032 H       
  59 H59            4.5219    -2.7425    -1.5485 H       
  60 H60            5.0236    -0.3460    -1.8104 H       
  61 H61            3.6203     1.1979     1.7884 H       
  62 H62            1.7240     0.1287     1.7388 H       
  63 H63           -0.3258     0.0412    -1.6781 H       
  64 H64           -4.1104     3.5252     2.3229 H       
  65 H65           -6.1477     2.6654     2.5009 H       
  66 H66           -6.7579     1.8825     1.0233 H       
  67 H67           -6.2191     0.8898     2.3990 H       
@<TRIPOS>BOND
   1    1   28 1
   2    1    2 1
   3    1    5 1
   4    1   40 1
   5    2   27 1
   6    2    3 1
   7    2   41 1
   8    3    4 1
   9    3    6 1
  10    3   42 1
  11    4    5 1
  12    5   29 1
  13    5   43 1
  14    6    7 1
  15    6   44 1
  16    6   45 1
  17    7    8 1
  18    8    9 1
  19    8   10 1
  20    8   11 1
  21    9   17 ar
  22    9   21 ar
  23   10   22 ar
  24   10   26 ar
  25   11   12 ar
  26   11   16 ar
  27   12   13 ar
  28   12   46 1
  29   13   14 ar
  30   13   47 1
  31   14   15 ar
  32   14   48 1
  33   15   16 ar
  34   15   49 1
  35   16   50 1
  36   17   18 ar
  37   17   51 1
  38   18   19 ar
  39   18   52 1
  40   19   20 ar
  41   19   53 1
  42   20   21 ar
  43   20   54 1
  44   21   55 1
  45   22   23 ar
  46   22   56 1
  47   23   24 ar
  48   23   57 1
  49   24   25 ar
  50   24   58 1
  51   25   26 ar
  52   25   59 1
  53   26   60 1
  54   27   61 1
  55   28   62 1
  56   29   30 1
  57   29   33 1
  58   30   31 2
  59   30   34 1
  60   31   32 1
  61   31   37 1
  62   32   33 2
  63   33   63 1
  64   34   35 2
  65   35   36 1
  66   35   64 1
  67   36   37 am
  68   36   39 1
  69   37   38 2
  70   39   65 1
  71   39   66 1
  72   39   67 1

#	End of record

