#	Name: ASD05313239
#	Creating user name:	WinNT
#	Creation time:	15. 06. 2019 20:59

#	Modifying user name:	WinNT
#	Modification time:	15. 06. 2019 20:59

#	Program:	/corina/corina34_cracker 3.40 0067  02.08.2006

@<TRIPOS>MOLECULE
ASD05313239
  42   45    0    0    0
SMALL
NO_CHARGES


@<TRIPOS>ATOM
   1 C1            -0.4471     1.1294     1.2151 C.2     
   2 C2            -0.1718    -0.3446     1.0163 C.3     
   3 N3             0.5225     2.0728     1.2640 N.pl3   
   4 N4             1.2469    -0.4721     0.6357 N.am    
   5 C5             2.2351     0.3327     1.3701 C.3     
   6 C6             1.9574     1.8193     1.1206 C.3     
   7 N7            -1.6054     1.7029     1.3700 N.2     
   8 C8            -1.4337     3.0217     1.5254 C.2     
   9 C9            -0.0971     3.2808     1.4645 C.2     
  10 C10            0.5558     4.6004     1.5929 C.ar    
  11 C11            1.9293     4.7174     1.3724 C.ar    
  12 C12            2.5263     5.9584     1.4956 C.ar    
  13 C13            1.7308     7.0469     1.8362 C.ar    
  14 C14            0.3745     6.8591     2.0406 C.ar    
  15 N15           -0.1700     5.6660     1.9117 N.ar    
  16 F16            2.2764     8.2760     1.9667 F       
  17 C17            1.6272    -1.3021    -0.3557 C.2     
  18 O18            2.7864    -1.3214    -0.7212 O.2     
  19 C19            0.6351    -2.1887    -0.9985 C.ar    
  20 C20            0.6147    -2.3279    -2.3888 C.ar    
  21 C21           -0.3157    -3.1584    -2.9822 C.ar    
  22 C22           -1.2254    -3.8504    -2.2034 C.ar    
  23 C23           -1.2104    -3.7162    -0.8262 C.ar    
  24 C24           -0.2825    -2.8954    -0.2194 C.ar    
  25 C25           -0.3400    -3.3106    -4.4813 C.3     
  26 F26           -1.3606    -4.1962    -4.8436 F       
  27 F27           -0.5723    -2.0642    -5.0728 F       
  28 F28            0.8903    -3.8125    -4.9191 F       
  29 Cl29           1.7554    -1.4590    -3.3673 Cl      
  30 H30           -0.3579    -0.8859     1.9439 H       
  31 H31           -0.8065    -0.7374     0.2219 H       
  32 H32            2.1569     0.1214     2.4366 H       
  33 H33            3.2378     0.0857     1.0213 H       
  34 H34            2.2749     2.0847     0.1122 H       
  35 H35            2.5074     2.4191     1.8458 H       
  36 H36           -2.2161     3.7510     1.6749 H       
  37 H37            2.5174     3.8506     1.1095 H       
  38 H38            3.5868     6.0795     1.3314 H       
  39 H39           -0.2462     7.7022     2.3056 H       
  40 H40           -1.9511    -4.4982    -2.6723 H       
  41 H41           -1.9243    -4.2590    -0.2244 H       
  42 H42           -0.2692    -2.7960     0.8559 H       
@<TRIPOS>BOND
   1    1    2 1
   2    1    3 1
   3    1    7 2
   4    2    4 1
   5    2   30 1
   6    2   31 1
   7    3    6 1
   8    3    9 1
   9    4    5 1
  10    4   17 am
  11    5    6 1
  12    5   32 1
  13    5   33 1
  14    6   34 1
  15    6   35 1
  16    7    8 1
  17    8    9 2
  18    8   36 1
  19    9   10 1
  20   10   11 ar
  21   10   15 ar
  22   11   12 ar
  23   11   37 1
  24   12   13 ar
  25   12   38 1
  26   13   14 ar
  27   13   16 1
  28   14   15 ar
  29   14   39 1
  30   17   18 2
  31   17   19 1
  32   19   20 ar
  33   19   24 ar
  34   20   21 ar
  35   20   29 1
  36   21   22 ar
  37   21   25 1
  38   22   23 ar
  39   22   40 1
  40   23   24 ar
  41   23   41 1
  42   24   42 1
  43   25   26 1
  44   25   27 1
  45   25   28 1

#	End of record

