#	Name: ASD04800006
#	Creating user name:	WinNT
#	Creation time:	15. 06. 2019 20:52

#	Modifying user name:	WinNT
#	Modification time:	15. 06. 2019 20:52

#	Program:	/corina/corina34_cracker 3.40 0067  02.08.2006

@<TRIPOS>MOLECULE
ASD04800006
  31   33    0    0    0
SMALL
NO_CHARGES


@<TRIPOS>ATOM
   1 N1            -0.0177     1.4517     0.0100 N.3     
   2 C2             0.0021    -0.0041     0.0020 C.3     
   3 N3             0.8945    -0.5435    -1.0164 N.3     
   4 C4             2.2334     0.0223    -1.0391 C.3     
   5 C5             2.4217     1.0658     0.0620 C.3     
   6 C6             1.2938     2.0926     0.0009 C.3     
   7 C7             0.3088    -0.5768     1.3834 C.3     
   8 C8             0.3074    -2.1089     1.3070 C.3     
   9 N9             1.2621    -2.5387     0.2736 N.3     
  10 C10            0.8746    -2.0069    -1.0373 C.3     
  11 C11            1.7860    -2.5535    -2.1325 C.3     
  12 C12            3.1965    -1.9786    -1.9936 C.3     
  13 N13            3.2370    -1.0399    -0.8655 N.3     
  14 H14           -0.6179     1.8206    -0.7124 H       
  15 H15           -1.0254    -0.3364    -0.2595 H       
  16 H16            2.4084     0.5022    -2.0096 H       
  17 H17            2.4803     0.5994     1.0364 H       
  18 H18            3.3760     1.5861    -0.1158 H       
  19 H19            1.4012     2.6910    -0.9100 H       
  20 H20            1.3750     2.7669     0.8604 H       
  21 H21            1.2638    -0.2314     1.7574 H       
  22 H22           -0.4759    -0.2616     2.0817 H       
  23 H23            0.6039    -2.5207     2.2706 H       
  24 H24           -0.6910    -2.4587     1.0483 H       
  25 H25            2.2026    -2.2854     0.5220 H       
  26 H26           -0.1550    -2.3369    -1.2480 H       
  27 H27            1.8312    -3.6435    -2.0586 H       
  28 H28            1.3806    -2.2867    -3.1119 H       
  29 H29            3.9065    -2.7892    -1.8200 H       
  30 H30            3.4691    -1.4559    -2.9127 H       
  31 H31            4.1587    -0.6440    -0.7548 H       
@<TRIPOS>BOND
   1    1    2 1
   2    1    6 1
   3    1   14 1
   4    2    3 1
   5    2    7 1
   6    2   15 1
   7    3    4 1
   8    3   10 1
   9    4    5 1
  10    4   13 1
  11    4   16 1
  12    5    6 1
  13    5   17 1
  14    5   18 1
  15    6   19 1
  16    6   20 1
  17    7    8 1
  18    7   21 1
  19    7   22 1
  20    8    9 1
  21    8   23 1
  22    8   24 1
  23    9   10 1
  24    9   25 1
  25   10   11 1
  26   10   26 1
  27   11   12 1
  28   11   27 1
  29   11   28 1
  30   12   13 1
  31   12   29 1
  32   12   30 1
  33   13   31 1

#	End of record

