#	Name: ASD04590373
#	Creating user name:	WinNT
#	Creation time:	15. 06. 2019 20:50

#	Modifying user name:	WinNT
#	Modification time:	15. 06. 2019 20:50

#	Program:	/corina/corina34_cracker 3.40 0067  02.08.2006

@<TRIPOS>MOLECULE
ASD04590373
  42   46    0    0    0
SMALL
NO_CHARGES


@<TRIPOS>ATOM
   1 C1            -0.0168     1.3913     0.0097 C.ar    
   2 C2             0.0021    -0.0041     0.0020 C.ar    
   3 C3            -1.1806    -0.7163     0.0038 C.ar    
   4 C4            -2.4041    -0.0383     0.0150 C.ar    
   5 C5            -2.4169     1.3669     0.0251 C.ar    
   6 C6            -1.2218     2.0716     0.0191 C.ar    
   7 N7            -3.6960    -0.4514     0.0184 N.2     
   8 C8            -4.4920     0.5900     0.0304 C.2     
   9 N9            -3.7490     1.7406     0.0354 N.pl3   
  10 C10           -5.9684     0.5315     0.0379 C.2     
  11 C11           -6.7537    -0.6444     0.0339 C.2     
  12 C12           -8.0567    -0.2712     0.0444 C.2     
  13 N13           -8.1009     1.0871     0.0547 N.pl3   
  14 N14           -6.7851     1.5666     0.0554 N.2     
  15 N15           -6.2702    -1.9629     0.0207 N.am    
  16 C16           -7.1341    -2.9974     0.0183 C.2     
  17 C17           -6.6262    -4.3824     0.0043 C.ar    
  18 O18           -8.3322    -2.7892     0.0276 O.2     
  19 C19           -6.3917    -5.0336    -1.2116 C.ar    
  20 C20           -5.9159    -6.3313    -1.2154 C.ar    
  21 C21           -5.6715    -6.9860    -0.0218 C.ar    
  22 C22           -5.9009    -6.3499     1.1847 C.ar    
  23 C23           -6.3708    -5.0502     1.2069 C.ar    
  24 F24           -6.5938    -4.4306     2.3865 F       
  25 F25           -6.6302    -4.3960    -2.3785 F       
  26 O26            1.1450     2.1022     0.0024 O.3     
  27 C27            2.3350     1.3948     0.3667 C.3     
  28 C28            2.3485     0.0568    -0.3846 C.3     
  29 O29            1.1835    -0.6828    -0.0038 O.3     
  30 H30           -1.1612    -1.7961    -0.0038 H       
  31 H31           -1.2318     3.1515     0.0275 H       
  32 H32           -4.0924     2.6477     0.0442 H       
  33 H33           -8.9085    -0.9352     0.0440 H       
  34 H34           -8.9045     1.6303     0.0634 H       
  35 H35           -5.3146    -2.1290     0.0133 H       
  36 H36           -5.7347    -6.8356    -2.1531 H       
  37 H37           -5.2998    -7.9999    -0.0320 H       
  38 H38           -5.7078    -6.8686     2.1121 H       
  39 H39            3.2108     1.9812     0.0887 H       
  40 H40            2.3400     1.2129     1.4414 H       
  41 H41            2.3334     0.2386    -1.4593 H       
  42 H42            3.2438    -0.5051    -0.1188 H       
@<TRIPOS>BOND
   1    1    2 ar
   2    1   26 1
   3    1    6 ar
   4    2    3 ar
   5    2   29 1
   6    3    4 ar
   7    3   30 1
   8    4    5 ar
   9    4    7 1
  10    5    6 ar
  11    5    9 1
  12    6   31 1
  13    7    8 2
  14    8    9 1
  15    8   10 1
  16    9   32 1
  17   10   11 1
  18   10   14 2
  19   11   12 2
  20   11   15 1
  21   12   13 1
  22   12   33 1
  23   13   14 1
  24   13   34 1
  25   15   16 am
  26   15   35 1
  27   16   17 1
  28   16   18 2
  29   17   19 ar
  30   17   23 ar
  31   19   20 ar
  32   19   25 1
  33   20   21 ar
  34   20   36 1
  35   21   22 ar
  36   21   37 1
  37   22   23 ar
  38   22   38 1
  39   23   24 1
  40   26   27 1
  41   27   28 1
  42   27   39 1
  43   27   40 1
  44   28   29 1
  45   28   41 1
  46   28   42 1

#	End of record

