#	Name: ASD02198098
#	Creating user name:	WinNT
#	Creation time:	15. 06. 2019 20:18

#	Modifying user name:	WinNT
#	Modification time:	15. 06. 2019 20:18

#	Program:	/corina/corina34_cracker 3.40 0067  02.08.2006

@<TRIPOS>MOLECULE
ASD02198098
  44   46    0    0    0
SMALL
NO_CHARGES


@<TRIPOS>ATOM
   1 C1             1.2274     0.9532    -0.6356 C.2     
   2 C2             1.1200    -0.4102    -0.4590 C.2     
   3 C3            -0.1366    -1.0830    -0.3224 C.1     
   4 S4             2.8615     1.4228    -0.7627 S.3     
   5 C5             3.4200    -0.2319    -0.5769 C.2     
   6 C6             2.3446    -1.0741    -0.4259 C.2     
   7 C7             4.7697    -0.6358    -0.5822 C.2     
   8 C8             5.8340     0.3474    -0.8721 C.ar    
   9 O9             5.0596    -1.7970    -0.3477 O.2     
  10 N10            2.4659    -2.4449    -0.2569 N.pl3   
  11 N11            0.1593     1.8175    -0.7058 N.pl3   
  12 N12           -1.1336    -1.6168    -0.2140 N.1     
  13 C13            6.6333     0.8405     0.1607 C.ar    
  14 C14            0.3785     3.1985    -0.7443 C.ar    
  15 C15            1.4916     3.7440    -0.1197 C.ar    
  16 C16            7.6281     1.7603    -0.1178 C.ar    
  17 C17            7.8332     2.1938    -1.4213 C.ar    
  18 C18            7.0462     1.7110    -2.4486 C.ar    
  19 C19            6.0495     0.7846    -2.1853 C.ar    
  20 C20            1.7057     5.1085    -0.1599 C.ar    
  21 C21            0.8132     5.9315    -0.8212 C.ar    
  22 C22           -0.2979     5.3930    -1.4449 C.ar    
  23 C23           -0.5157     4.0281    -1.4138 C.ar    
  24 F24           -1.6008     3.5020    -2.0229 F       
  25 O25            8.4072     2.2418     0.8875 O.3     
  26 C26            9.4157     3.1889     0.5299 C.3     
  27 O27            5.2768     0.3103    -3.1961 O.3     
  28 C28            5.5460     0.8096    -4.5077 C.3     
  29 H29            3.3444    -2.8557    -0.2408 H       
  30 H30            1.6721    -2.9931    -0.1548 H       
  31 H31           -0.7457     1.4693    -0.7285 H       
  32 H32            6.4751     0.5048     1.1749 H       
  33 H33            2.1897     3.1025     0.3976 H       
  34 H34            8.6114     2.9121    -1.6326 H       
  35 H35            7.2106     2.0529    -3.4597 H       
  36 H36            2.5716     5.5329     0.3264 H       
  37 H37            0.9836     6.9975    -0.8506 H       
  38 H38           -0.9934     6.0388    -1.9603 H       
  39 H39           10.1044     2.7348    -0.1826 H       
  40 H40            8.9486     4.0634     0.0768 H       
  41 H41            9.9633     3.4911     1.4226 H       
  42 H42            4.8594     0.3507    -5.2191 H       
  43 H43            5.4120     1.8912    -4.5193 H       
  44 H44            6.5720     0.5676    -4.7850 H       
@<TRIPOS>BOND
   1    1    2 2
   2    1    4 1
   3    1   11 1
   4    2    3 1
   5    2    6 1
   6    3   12 3
   7    4    5 1
   8    5    6 2
   9    5    7 1
  10    6   10 1
  11    7    8 1
  12    7    9 2
  13    8   13 ar
  14    8   19 ar
  15   10   29 1
  16   10   30 1
  17   11   14 1
  18   11   31 1
  19   13   16 ar
  20   13   32 1
  21   14   15 ar
  22   14   23 ar
  23   15   20 ar
  24   15   33 1
  25   16   17 ar
  26   16   25 1
  27   17   18 ar
  28   17   34 1
  29   18   19 ar
  30   18   35 1
  31   19   27 1
  32   20   21 ar
  33   20   36 1
  34   21   22 ar
  35   21   37 1
  36   22   23 ar
  37   22   38 1
  38   23   24 1
  39   25   26 1
  40   26   39 1
  41   26   40 1
  42   26   41 1
  43   27   28 1
  44   28   42 1
  45   28   43 1
  46   28   44 1

#	End of record

