#	Name: ASD02690062
#	Creating user name:	WinNT
#	Creation time:	15. 06. 2019 20:26

#	Modifying user name:	WinNT
#	Modification time:	15. 06. 2019 20:26

#	Program:	/corina/corina34_cracker 3.40 0067  02.08.2006

@<TRIPOS>MOLECULE
ASD02690062
  57   59    0    0    0
SMALL
NO_CHARGES


@<TRIPOS>ATOM
   1 C1             0.0045     1.1767     0.0573 C.2     
   2 O2             0.0137    -0.0334    -0.0199 O.2     
   3 N3             4.0242     2.2105    -0.8694 N.3     
   4 C4             3.7539     1.8006     0.5145 C.3     
   5 C5             2.4280     1.0385     0.5725 C.3     
   6 C6             1.3030     1.9414     0.0589 C.3     
   7 C7             1.6325     2.3934    -1.3665 C.3     
   8 C8             2.9814     3.1162    -1.3683 C.3     
   9 C9             6.4010     1.9048    -0.3600 C.3     
  10 C10            5.3540     2.8234    -0.9868 C.3     
  11 C11            5.7048     3.0169    -2.4668 C.3     
  12 C12            6.9707     3.8670    -2.5545 C.3     
  13 C13            8.0526     3.2985    -1.6740 C.ar    
  14 C14            9.3587     3.7106    -1.9062 C.ar    
  15 C15           10.3938     3.2296    -1.1318 C.ar    
  16 C16           10.1301     2.3304    -0.1151 C.ar    
  17 C17            8.8341     1.9190     0.1163 C.ar    
  18 C18            7.7905     2.4004    -0.6640 C.ar    
  19 O19            5.9356     1.7455    -3.0770 O.3     
  20 C20           -1.2995     3.2942     0.2325 C.ar    
  21 C21           -1.2749     1.8989     0.1432 C.ar    
  22 C22           -2.4905     1.1998     0.1363 C.ar    
  23 C23           -3.6661     1.9281     0.2189 C.ar    
  24 C24           -3.6028     3.3098     0.3047 C.ar    
  25 N25           -2.4435     3.9403     0.3085 N.ar    
  26 F26           -4.8613     1.2982     0.2154 F       
  27 H27            4.5592     1.1556     0.8661 H       
  28 H28            3.6929     2.6843     1.1497 H       
  29 H29            2.4929     0.1473    -0.0517 H       
  30 H30            2.2200     0.7480     1.6023 H       
  31 H31            1.2114     2.8134     0.7065 H       
  32 H32            1.6849     1.5235    -2.0211 H       
  33 H33            0.8562     3.0709    -1.7220 H       
  34 H34            2.9241     3.9937    -0.7243 H       
  35 H35            3.2257     3.4268    -2.3841 H       
  36 H36            6.2567     1.8796     0.7201 H       
  37 H37            6.2825     0.8983    -0.7614 H       
  38 H38            5.3600     3.7875    -0.4784 H       
  39 H39            4.8853     3.5251    -2.9749 H       
  40 H40            7.3202     3.8858    -3.5867 H       
  41 H41            6.7437     4.8838    -2.2339 H       
  42 H42            9.5655     4.4132    -2.7000 H       
  43 H43           11.4067     3.5539    -1.3191 H       
  44 H44           10.9362     1.9512     0.4956 H       
  45 H45            8.6290     1.2161     0.9103 H       
  46 H46            6.1628     1.7951    -4.0156 H       
  47 H47           -0.3713     3.8462     0.2435 H       
  48 H48           -2.5097     0.1221     0.0681 H       
  49 H49           -4.5176     3.8802     0.3693 H       
  50 C50           17.5809    13.0009     6.6300 C.2     
  51 C51           17.6012    11.5068     6.6218 C.2     
  52 O52           18.6226    13.6214     6.6234 O.2     
  53 O53           16.4067    13.6577     6.6392 O.3     
  54 O54           16.5595    10.8863     6.6284 O.2     
  55 O55           18.7754    10.8500     6.6071 O.3     
  56 H56           16.4442    14.6240     6.6443 H       
  57 H57           18.7379     9.8838     6.6023 H       
@<TRIPOS>BOND
   1    1    2 2
   2    1    6 1
   3    1   21 1
   4    3    4 1
   5    3    8 1
   6    3   10 1
   7    4    5 1
   8    4   27 1
   9    4   28 1
  10    5    6 1
  11    5   29 1
  12    5   30 1
  13    6    7 1
  14    6   31 1
  15    7    8 1
  16    7   32 1
  17    7   33 1
  18    8   34 1
  19    8   35 1
  20    9   10 1
  21    9   18 1
  22    9   36 1
  23    9   37 1
  24   10   11 1
  25   10   38 1
  26   11   12 1
  27   11   19 1
  28   11   39 1
  29   12   13 1
  30   12   40 1
  31   12   41 1
  32   13   14 ar
  33   13   18 ar
  34   14   15 ar
  35   14   42 1
  36   15   16 ar
  37   15   43 1
  38   16   17 ar
  39   16   44 1
  40   17   18 ar
  41   17   45 1
  42   19   46 1
  43   20   21 ar
  44   20   25 ar
  45   20   47 1
  46   21   22 ar
  47   22   23 ar
  48   22   48 1
  49   23   24 ar
  50   23   26 1
  51   24   25 ar
  52   24   49 1
  53   50   51 1
  54   50   52 2
  55   50   53 1
  56   51   54 2
  57   51   55 1
  58   53   56 1
  59   55   57 1

#	End of record

