#	Name: ASD04030011
#	Creating user name:	WinNT
#	Creation time:	15. 06. 2019 20:48

#	Modifying user name:	WinNT
#	Modification time:	15. 06. 2019 20:48

#	Program:	/corina/corina34_cracker 3.40 0067  02.08.2006

@<TRIPOS>MOLECULE
ASD04030011
  45   48    0    0    0
SMALL
NO_CHARGES


@<TRIPOS>ATOM
   1 C1            -0.0126     1.0758     0.0080 C.ar    
   2 C2            -2.4886    -0.3946     0.0102 C.ar    
   3 C3            -9.0971    -1.2352     0.0850 C.ar    
   4 C4            -9.3019     1.1735     0.1144 C.ar    
   5 C5           -11.2603    -0.2065     0.1427 C.ar    
   6 C6           -10.4708    -1.3458     0.1120 C.ar    
   7 C7           -10.6745     1.0502     0.1359 C.ar    
   8 C8             1.1838     1.7923     0.0004 C.ar    
   9 C9            -1.2245     1.7576     0.0174 C.ar    
  10 C10           -1.2377     3.1521     0.0251 C.ar    
  11 C11           -6.3288     1.3480     0.0674 C.2     
  12 C12           -7.0315     0.1538     0.0661 C.2     
  13 C13           -4.9035     0.9661     0.0406 C.ar    
  14 O14           -6.1651    -0.8715     0.0416 O.3     
  15 C15           -4.8869    -0.4378     0.0257 C.ar    
  16 C16           -6.8844     2.7054     0.0900 C.2     
  17 C17           -3.7133     1.6839     0.0282 C.ar    
  18 C18            2.4760     1.0763    -0.0163 C.2     
  19 C19           -2.5020     1.0023     0.0188 C.ar    
  20 C20           -8.5005     0.0287     0.0887 C.ar    
  21 C21           -3.6672    -1.1057     0.0109 C.ar    
  22 O22           -7.1317     3.2792    -0.9544 O.2     
  23 O23            2.4973    -0.1382    -0.0235 O.2     
  24 N24           -7.1208     3.3173     1.2674 N.am    
  25 O25            3.6306     1.7703    -0.0236 O.3     
  26 F26          -12.6063    -0.3212     0.1634 F       
  27 C27            1.1571     3.1888     0.0082 C.ar    
  28 C28           -0.0504     3.8578     0.0234 C.ar    
  29 C29           -7.6756     4.6729     1.2900 C.3     
  30 H30            0.0021    -0.0041     0.0020 H       
  31 H31           -1.5456    -0.9210    -0.0017 H       
  32 H32           -8.4830    -2.1234     0.0656 H       
  33 H33           -8.8465     2.1528     0.1171 H       
  34 H34          -10.9330    -2.3219     0.1088 H       
  35 H35          -11.2947     1.9340     0.1600 H       
  36 H36           -2.1789     3.6817     0.0321 H       
  37 H37           -3.7295     2.7638     0.0394 H       
  38 H38           -3.6446    -2.1854    -0.0003 H       
  39 H39           -6.9236     2.8600     2.0998 H       
  40 H40            4.4506     1.2580    -0.0346 H       
  41 H41            2.0823     3.7459     0.0023 H       
  42 H42           -0.0666     4.9377     0.0293 H       
  43 H43           -7.7967     4.9988     2.3231 H       
  44 H44           -6.9979     5.3516     0.7720 H       
  45 H45           -8.6450     4.6772     0.7917 H       
@<TRIPOS>BOND
   1    1   30 1
   2    1    8 ar
   3    1    9 ar
   4    2   21 ar
   5    2   31 1
   6    2   19 ar
   7    3   20 ar
   8    3   32 1
   9    3    6 ar
  10    4   33 1
  11    4    7 ar
  12    4   20 ar
  13    5    7 ar
  14    5    6 ar
  15    5   26 1
  16    6   34 1
  17    7   35 1
  18    8   18 1
  19    8   27 ar
  20    9   19 1
  21    9   10 ar
  22   10   36 1
  23   10   28 ar
  24   11   13 1
  25   11   12 2
  26   11   16 1
  27   12   14 1
  28   12   20 1
  29   13   15 ar
  30   13   17 ar
  31   14   15 1
  32   15   21 ar
  33   16   22 2
  34   16   24 am
  35   17   19 ar
  36   17   37 1
  37   18   25 1
  38   18   23 2
  39   21   38 1
  40   24   39 1
  41   24   29 1
  42   25   40 1
  43   27   41 1
  44   27   28 ar
  45   28   42 1
  46   29   43 1
  47   29   44 1
  48   29   45 1

#	End of record

