#	Name: ASD03332086
#	Creating user name:	WinNT
#	Creation time:	15. 06. 2019 20:40

#	Modifying user name:	WinNT
#	Modification time:	15. 06. 2019 20:40

#	Program:	/corina/corina34_cracker 3.40 0067  02.08.2006

@<TRIPOS>MOLECULE
ASD03332086
  70   73    0    0    0
SMALL
NO_CHARGES


@<TRIPOS>ATOM
   1 C1             0.5197     1.9161     0.2205 C.2     
   2 N2             0.6108     0.5748     0.0186 N.pl3   
   3 C3             1.9345     0.2456     0.0458 C.2     
   4 N4             2.6318     1.3337     0.2745 N.2     
   5 C5             1.7879     2.3825     0.3904 C.2     
   6 C6             2.1712     3.7809     0.6529 C.2     
   7 O7             1.3151     4.6408     0.7358 O.2     
   8 N8             3.4705     4.1070     0.8012 N.am    
   9 C9             3.8515     5.4973     1.0622 C.3     
  10 C10            3.9649     6.2525    -0.2636 C.3     
  11 C11            5.0287     5.5880    -1.1397 C.3     
  12 C12            5.1797     5.5290     1.7735 C.2     
  13 C13            2.6164     6.2203    -0.9857 C.3     
  14 C14            4.3629     7.7045     0.0090 C.3     
  15 N15            5.4905     6.2627     2.8151 N.2     
  16 C16           -0.5218    -0.3350    -0.1734 C.3     
  17 C17           -1.4845     0.2713    -1.1992 C.3     
  18 C18           -2.4828     1.1834    -0.4936 C.3     
  19 N19           -1.8657     1.8530     0.6531 N.3     
  20 C20           -0.7548     2.7197     0.2323 C.3     
  21 C21            2.4907    -1.1109    -0.1494 C.ar    
  22 C22            1.9434    -2.1975     0.5329 C.ar    
  23 C23            2.4667    -3.4606     0.3467 C.ar    
  24 C24            3.5324    -3.6523    -0.5144 C.ar    
  25 C25            4.0817    -2.5806    -1.1946 C.ar    
  26 C26            3.5635    -1.3108    -1.0225 C.ar    
  27 C27            6.7698     5.9619     3.1010 C.2     
  28 N28            7.1645     5.0772     2.2349 N.2     
  29 O29            6.2641     4.8106     1.4670 O.3     
  30 C30            7.5943     6.5444     4.2199 C.3     
  31 C31           -2.8635     2.6110     1.4198 C.3     
  32 C32            4.0977    -5.0352    -0.7118 C.3     
  33 F33            4.0999    -0.2643    -1.6874 F       
  34 C34           -3.6489     3.5219     0.4741 C.3     
  35 C35           -3.8247     1.6390     2.1070 C.3     
  36 H36            4.1533     3.4212     0.7352 H       
  37 H37            3.0937     5.9707     1.6864 H       
  38 H38            4.7451     4.5536    -1.3339 H       
  39 H39            5.1094     6.1260    -2.0842 H       
  40 H40            5.9893     5.6109    -0.6252 H       
  41 H41            1.8586     6.6937    -0.3616 H       
  42 H42            2.6972     6.7583    -1.9303 H       
  43 H43            2.3329     5.1859    -1.1799 H       
  44 H44            5.3235     7.7274     0.5235 H       
  45 H45            4.4436     8.2425    -0.9355 H       
  46 H46            3.6050     8.1779     0.6332 H       
  47 H47           -0.1594    -1.2963    -0.5376 H       
  48 H48           -1.0409    -0.4757     0.7747 H       
  49 H49           -0.9186     0.8496    -1.9296 H       
  50 H50           -2.0217    -0.5284    -1.7090 H       
  51 H51           -2.8396     1.9355    -1.1973 H       
  52 H52           -3.3283     0.5887    -0.1479 H       
  53 H53           -0.6556     3.5503     0.9311 H       
  54 H54           -0.9520     3.1051    -0.7681 H       
  55 H55            1.1117    -2.0503     1.2059 H       
  56 H56            2.0433    -4.3020     0.8751 H       
  57 H57            4.9137    -2.7370    -1.8652 H       
  58 H58            7.4766     5.9327     5.1144 H       
  59 H59            8.6440     6.5615     3.9269 H       
  60 H60            7.2585     7.5603     4.4278 H       
  61 H61           -2.3596     3.2169     2.1727 H       
  62 H62            3.5788    -5.5257    -1.5353 H       
  63 H63            5.1605    -4.9637    -0.9432 H       
  64 H64            3.9628    -5.6165     0.2003 H       
  65 H65           -4.2334     2.9125    -0.2152 H       
  66 H66           -4.3180     4.1574     1.0542 H       
  67 H67           -2.9549     4.1446    -0.0904 H       
  68 H68           -3.2651     0.9901     2.7807 H       
  69 H69           -4.5651     2.2014     2.6758 H       
  70 H70           -4.3286     1.0330     1.3540 H       
@<TRIPOS>BOND
   1    1    2 1
   2    1    5 2
   3    1   20 1
   4    2    3 1
   5    2   16 1
   6    3    4 2
   7    3   21 1
   8    4    5 1
   9    5    6 1
  10    6    7 2
  11    6    8 am
  12    8    9 1
  13    8   36 1
  14    9   10 1
  15    9   12 1
  16    9   37 1
  17   10   11 1
  18   10   13 1
  19   10   14 1
  20   11   38 1
  21   11   39 1
  22   11   40 1
  23   12   15 2
  24   12   29 1
  25   13   41 1
  26   13   42 1
  27   13   43 1
  28   14   44 1
  29   14   45 1
  30   14   46 1
  31   15   27 1
  32   16   17 1
  33   16   47 1
  34   16   48 1
  35   17   18 1
  36   17   49 1
  37   17   50 1
  38   18   19 1
  39   18   51 1
  40   18   52 1
  41   19   20 1
  42   19   31 1
  43   20   53 1
  44   20   54 1
  45   21   22 ar
  46   21   26 ar
  47   22   23 ar
  48   22   55 1
  49   23   24 ar
  50   23   56 1
  51   24   25 ar
  52   24   32 1
  53   25   26 ar
  54   25   57 1
  55   26   33 1
  56   27   28 2
  57   27   30 1
  58   28   29 1
  59   30   58 1
  60   30   59 1
  61   30   60 1
  62   31   34 1
  63   31   35 1
  64   31   61 1
  65   32   62 1
  66   32   63 1
  67   32   64 1
  68   34   65 1
  69   34   66 1
  70   34   67 1
  71   35   68 1
  72   35   69 1
  73   35   70 1

#	End of record

