#	Name: ASD01914607
#	Creating user name:	WinNT
#	Creation time:	15. 06. 2019 20:03

#	Modifying user name:	WinNT
#	Modification time:	15. 06. 2019 20:03

#	Program:	/corina/corina34_cracker 3.40 0067  02.08.2006

@<TRIPOS>MOLECULE
ASD01914607
  49   51    0    0    0
SMALL
NO_CHARGES


@<TRIPOS>ATOM
   1 C1             0.6208     1.2666    -0.9669 C.ar    
   2 C2             0.6102    -0.0913    -0.6293 C.ar    
   3 C3             1.6425    -0.9161    -1.1094 C.ar    
   4 N4             2.6043    -0.4119    -1.8661 N.ar    
   5 C5             2.6319     0.8652    -2.1952 C.ar    
   6 C6             1.6513     1.7386    -1.7615 C.ar    
   7 N7             1.6533    -2.2625    -0.7888 N.3     
   8 C8             0.3993    -2.9100    -1.1940 C.3     
   9 C9             2.8023    -2.9431    -1.4082 C.3     
  10 C10            2.9490    -4.3275    -0.7718 C.3     
  11 C11            1.6190    -5.0284    -0.7711 C.2     
  12 C12            0.4789    -4.3908    -0.9571 C.2     
  13 C13            1.5875    -6.4827    -0.5544 C.2     
  14 N14            0.4274    -7.1575    -0.6785 N.am    
  15 O15            2.6083    -7.0765    -0.2630 O.2     
  16 C16            0.4259    -8.5575    -0.6545 C.ar    
  17 C17           -0.6113    -9.2614    -1.2522 C.ar    
  18 C18           -0.6122   -10.6420    -1.2281 C.ar    
  19 C19            0.4225   -11.3259    -0.6065 C.ar    
  20 C20            1.4589   -10.6234    -0.0092 C.ar    
  21 C21            1.4644    -9.2429    -0.0379 C.ar    
  22 C22            3.9584    -5.1518    -1.5734 C.3     
  23 C23            5.3616    -4.5763    -1.3717 C.3     
  24 C24           -0.4326    -0.6307     0.1905 C.1     
  25 N25           -1.2599    -1.0587     0.8408 N.1     
  26 O26            0.4205   -12.6854    -0.5824 O.3     
  27 C27            1.5169   -13.3242     0.0747 C.3     
  28 F28            1.5545   -12.9245     1.4148 F       
  29 F29            1.3569   -14.7123     0.0064 F       
  30 F30            2.7129   -12.9612    -0.5539 F       
  31 H31           -0.1582     1.9291    -0.6198 H       
  32 H32            3.4352     1.2356    -2.8148 H       
  33 H33            1.6894     2.7813    -2.0405 H       
  34 H34           -0.4250    -2.4953    -0.6137 H       
  35 H35            0.2221    -2.7228    -2.2531 H       
  36 H36            2.6312    -3.0489    -2.4795 H       
  37 H37            3.7085    -2.3626    -1.2350 H       
  38 H38            3.3027    -4.2197     0.2536 H       
  39 H39           -0.4388    -4.9599    -0.9386 H       
  40 H40           -0.4064    -6.6733    -0.7846 H       
  41 H41           -1.4173    -8.7291    -1.7355 H       
  42 H42           -1.4187   -11.1896    -1.6928 H       
  43 H43            2.2641   -11.1565     0.4744 H       
  44 H44            2.2716    -8.6962     0.4268 H       
  45 H45            3.9372    -6.1861    -1.2300 H       
  46 H46            3.6991    -5.1149    -2.6314 H       
  47 H47            5.3684    -3.5255    -1.6612 H       
  48 H48            5.6438    -4.6659    -0.3227 H       
  49 H49            6.0724    -5.1274    -1.9875 H       
@<TRIPOS>BOND
   1    1    2 ar
   2    1    6 ar
   3    1   31 1
   4    2    3 ar
   5    2   24 1
   6    3    4 ar
   7    3    7 1
   8    4    5 ar
   9    5    6 ar
  10    5   32 1
  11    6   33 1
  12    7    8 1
  13    7    9 1
  14    8   12 1
  15    8   34 1
  16    8   35 1
  17    9   10 1
  18    9   36 1
  19    9   37 1
  20   10   11 1
  21   10   22 1
  22   10   38 1
  23   11   12 2
  24   11   13 1
  25   12   39 1
  26   13   14 am
  27   13   15 2
  28   14   16 1
  29   14   40 1
  30   16   17 ar
  31   16   21 ar
  32   17   18 ar
  33   17   41 1
  34   18   19 ar
  35   18   42 1
  36   19   20 ar
  37   19   26 1
  38   20   21 ar
  39   20   43 1
  40   21   44 1
  41   22   23 1
  42   22   45 1
  43   22   46 1
  44   23   47 1
  45   23   48 1
  46   23   49 1
  47   24   25 3
  48   26   27 1
  49   27   28 1
  50   27   29 1
  51   27   30 1

#	End of record

