#	Name: ASD01811276
#	Creating user name:	WinNT
#	Creation time:	15. 06. 2019 19:26

#	Modifying user name:	WinNT
#	Modification time:	15. 06. 2019 19:26

#	Program:	/corina/corina34_cracker 3.40 0067  02.08.2006

@<TRIPOS>MOLECULE
ASD01811276
  73   77    0    0    0
SMALL
NO_CHARGES


@<TRIPOS>ATOM
   1 C1             4.0557    -7.8449     0.7575 C.ar    
   2 C2             3.0183    -6.9968     1.1502 C.ar    
   3 C3             3.2252    -5.6336     1.1941 C.ar    
   4 C4             4.4572    -5.1063     0.8500 C.ar    
   5 C5             5.4896    -5.9408     0.4598 C.ar    
   6 C6             5.2965    -7.3059     0.4115 C.ar    
   7 N7             6.2212    -1.2661     0.6012 N.am    
   8 C8             5.9984    -1.7810     1.9592 C.3     
   9 C9             5.8026    -3.2985     1.8852 C.3     
  10 C10            4.6755    -3.6160     0.8998 C.3     
  11 C11            5.0559    -3.1096    -0.4934 C.3     
  12 C12            5.2432    -1.5899    -0.4463 C.3     
  13 C13            7.2993    -0.5066     0.3231 C.2     
  14 C14            8.2068    -0.0844     1.4114 C.ar    
  15 C15            7.6827     0.3413     2.6345 C.ar    
  16 C16            8.5287     0.7359     3.6517 C.ar    
  17 C17            9.8972     0.7127     3.4681 C.ar    
  18 C18           10.4345     0.2892     2.2504 C.ar    
  19 C19            9.5864    -0.1158     1.2215 C.ar    
  20 O20            7.5256    -0.1688    -0.8223 O.2     
  21 C21           11.8997     0.2658     2.0553 C.2     
  22 N22           12.4134    -0.0137     0.8410 N.am    
  23 O23           12.6412     0.4987     2.9901 O.2     
  24 C24           13.7994    -0.1405     0.6790 C.ar    
  25 C25           14.5931    -0.6024     1.7281 C.ar    
  26 C26           10.8129     1.1456     4.5840 C.3     
  27 C27           14.3975     0.1865    -0.5282 C.ar    
  28 N28           15.7021     0.0693    -0.6885 N.ar    
  29 C29           16.4867    -0.3605     0.2868 C.ar    
  30 C30           15.9561    -0.7118     1.5239 C.ar    
  31 N31           17.8578    -0.4676     0.0705 N.3     
  32 C32            3.8499    -9.2614     0.7153 C.1     
  33 N33            3.6866   -10.3851     0.6819 N.1     
  34 C34           18.2093    -0.0555    -1.2956 C.3     
  35 C35           19.7291    -0.1116    -1.4675 C.3     
  36 N36           20.2002    -1.4766    -1.1946 N.3     
  37 C37           19.8488    -1.8887     0.1716 C.3     
  38 C38           18.3290    -1.8326     0.3434 C.3     
  39 C39           21.6470    -1.5896    -1.4228 C.3     
  40 H40            2.0560    -7.4071     1.4188 H       
  41 H41            2.4235    -4.9765     1.4973 H       
  42 H42            6.4487    -5.5226     0.1925 H       
  43 H43            6.1032    -7.9562     0.1072 H       
  44 H44            6.8633    -1.5541     2.5825 H       
  45 H45            5.1077    -1.3179     2.3839 H       
  46 H46            6.7257    -3.7683     1.5457 H       
  47 H47            5.5412    -3.6802     2.8722 H       
  48 H48            3.7586    -3.1254     1.2265 H       
  49 H49            5.9861    -3.5811    -0.8105 H       
  50 H50            4.2631    -3.3567    -1.1993 H       
  51 H51            4.2910    -1.1112    -0.2178 H       
  52 H52            5.6099    -1.2369    -1.4102 H       
  53 H53            6.6134     0.3622     2.7844 H       
  54 H54            8.1183     1.0645     4.5951 H       
  55 H55            9.9968    -0.4480     0.2794 H       
  56 H56           11.8237    -0.1271     0.0793 H       
  57 H57           14.1536    -0.8683     2.6781 H       
  58 H58           11.1771     0.2671     5.1167 H       
  59 H59           11.6578     1.6947     4.1683 H       
  60 H60           10.2661     1.7882     5.2741 H       
  61 H61           13.7888     0.5408    -1.3470 H       
  62 H62           16.6013    -1.0620     2.3160 H       
  63 H63           17.7373    -0.7287    -2.0113 H       
  64 H64           17.8610     0.9626    -1.4693 H       
  65 H65           19.9900     0.1658    -2.4888 H       
  66 H66           20.1997     0.5817    -0.7704 H       
  67 H67           20.1970    -2.9068     0.3452 H       
  68 H68           20.3208    -1.2155     0.8872 H       
  69 H69           18.0680    -2.1100     1.3647 H       
  70 H70           17.8584    -2.5259    -0.3536 H       
  71 H71           22.1738    -0.8997    -0.7635 H       
  72 H72           21.9692    -2.6096    -1.2135 H       
  73 H73           21.8715    -1.3434    -2.4606 H       
@<TRIPOS>BOND
   1    1    2 ar
   2    1    6 ar
   3    1   32 1
   4    2    3 ar
   5    2   40 1
   6    3    4 ar
   7    3   41 1
   8    4    5 ar
   9    4   10 1
  10    5    6 ar
  11    5   42 1
  12    6   43 1
  13    7    8 1
  14    7   12 1
  15    7   13 am
  16    8    9 1
  17    8   44 1
  18    8   45 1
  19    9   10 1
  20    9   46 1
  21    9   47 1
  22   10   11 1
  23   10   48 1
  24   11   12 1
  25   11   49 1
  26   11   50 1
  27   12   51 1
  28   12   52 1
  29   13   14 1
  30   13   20 2
  31   14   15 ar
  32   14   19 ar
  33   15   16 ar
  34   15   53 1
  35   16   17 ar
  36   16   54 1
  37   17   18 ar
  38   17   26 1
  39   18   19 ar
  40   18   21 1
  41   19   55 1
  42   21   22 am
  43   21   23 2
  44   22   24 1
  45   22   56 1
  46   24   27 ar
  47   24   25 ar
  48   25   30 ar
  49   25   57 1
  50   26   58 1
  51   26   59 1
  52   26   60 1
  53   27   28 ar
  54   27   61 1
  55   28   29 ar
  56   29   30 ar
  57   29   31 1
  58   30   62 1
  59   31   34 1
  60   31   38 1
  61   32   33 3
  62   34   35 1
  63   34   63 1
  64   34   64 1
  65   35   36 1
  66   35   65 1
  67   35   66 1
  68   36   37 1
  69   36   39 1
  70   37   38 1
  71   37   67 1
  72   37   68 1
  73   38   69 1
  74   38   70 1
  75   39   71 1
  76   39   72 1
  77   39   73 1

#	End of record

