#	Name: ASD02030115
#	Creating user name:	WinNT
#	Creation time:	15. 06. 2019 20:14

#	Modifying user name:	WinNT
#	Modification time:	15. 06. 2019 20:14

#	Program:	/corina/corina34_cracker 3.40 0067  02.08.2006

@<TRIPOS>MOLECULE
ASD02030115
  67   71    0    0    0
SMALL
NO_CHARGES


@<TRIPOS>ATOM
   1 N1            -0.4926     1.5715    -0.3654 N.am    
   2 C2            -0.6612     0.1195    -0.5177 C.3     
   3 C3            -1.4256    -0.4155     0.6995 C.3     
   4 N4            -2.6179     0.4179     0.9087 N.am    
   5 C5            -2.4494     1.8699     1.0611 C.3     
   6 C6            -1.6844     2.4042    -0.1506 C.3     
   7 C7             0.7335     2.1288    -0.4162 C.2     
   8 C8             1.9337     1.2690    -0.4911 C.2     
   9 N9             3.1824     1.6741    -0.4046 N.2     
  10 N10            1.9414    -0.0668    -0.6540 N.2     
  11 C11            3.1928    -0.4496    -0.6690 C.2     
  12 N12            3.9575     0.6504    -0.5118 N.pl3   
  13 O13            0.8524     3.3385    -0.4003 O.2     
  14 C14           -3.8440    -0.1394     0.9595 C.2     
  15 C15           -3.9940    -1.6075     0.8574 C.ar    
  16 O16           -4.8265     0.5643     1.0893 O.2     
  17 C17           -1.2615     3.8519     0.1067 C.3     
  18 C18           -2.5775     2.3392    -1.3912 C.3     
  19 C19            5.3581     0.6756    -0.4723 C.ar    
  20 C20            6.0278     1.8803    -0.3045 C.ar    
  21 C21            7.4082     1.9019    -0.2660 C.ar    
  22 C22            8.1234     0.7254    -0.3948 C.ar    
  23 C23            7.4593    -0.4760    -0.5620 C.ar    
  24 C24            6.0789    -0.5048    -0.5951 C.ar    
  25 N25           -2.9445    -2.3912     1.1243 N.ar    
  26 C26           -3.0046    -3.7019     1.0545 C.ar    
  27 C27           -4.2120    -4.3374     0.6856 C.ar    
  28 C28           -5.3454    -3.5354     0.3956 C.ar    
  29 C29           -5.2179    -2.1377     0.4935 C.ar    
  30 O30           -1.9074    -4.4453     1.3361 O.3     
  31 C31           -0.6928    -3.7377     1.5933 C.3     
  32 C32           -0.5844    -3.4379     3.0897 C.3     
  33 C33            0.4981    -4.5934     1.1570 C.3     
  34 C34           -4.3171    -5.7312     0.5991 C.ar    
  35 C35           -5.5048    -6.2958     0.2382 C.ar    
  36 C36           -6.6175    -5.5084    -0.0464 C.ar    
  37 C37           -6.5517    -4.1489     0.0280 C.ar    
  38 H38           -1.2266    -0.0898    -1.4258 H       
  39 H39            0.3169    -0.3583    -0.5745 H       
  40 H40           -1.7275    -1.4469     0.5175 H       
  41 H41           -0.7873    -0.3688     1.5818 H       
  42 H42           -3.4274     2.3477     1.1178 H       
  43 H43           -1.8839     2.0792     1.9691 H       
  44 H44            3.5486    -1.4629    -0.7831 H       
  45 H45           -0.4302     3.8678     0.8115 H       
  46 H46           -0.9514     4.3121    -0.8315 H       
  47 H47           -2.1018     4.4073     0.5234 H       
  48 H48           -3.4687     2.9455    -1.2295 H       
  49 H49           -2.0301     2.7205    -2.2533 H       
  50 H50           -2.8698     1.3053    -1.5747 H       
  51 H51            5.4698     2.7996    -0.2046 H       
  52 H52            7.9297     2.8386    -0.1356 H       
  53 H53            9.2028     0.7449    -0.3651 H       
  54 H54            8.0206    -1.3932    -0.6624 H       
  55 H55            5.5608    -1.4435    -0.7254 H       
  56 H56           -6.0570    -1.4917     0.2811 H       
  57 H57           -0.6921    -2.8020     1.0343 H       
  58 H58            0.3421    -2.8981     3.2859 H       
  59 H59           -1.4328    -2.8282     3.4005 H       
  60 H60           -0.5851    -4.3736     3.6488 H       
  61 H61            0.4209    -4.8070     0.0909 H       
  62 H62            1.4246    -4.0537     1.3532 H       
  63 H63            0.4974    -5.5291     1.7161 H       
  64 H64           -3.4628    -6.3551     0.8164 H       
  65 H65           -5.5836    -7.3709     0.1718 H       
  66 H66           -7.5460    -5.9816    -0.3297 H       
  67 H67           -7.4216    -3.5489    -0.1948 H       
@<TRIPOS>BOND
   1    1    2 1
   2    1    7 am
   3    1    6 1
   4    2    3 1
   5    2   38 1
   6    2   39 1
   7    3    4 1
   8    3   40 1
   9    3   41 1
  10    4    5 1
  11    4   14 am
  12    5    6 1
  13    5   42 1
  14    5   43 1
  15    6   17 1
  16    6   18 1
  17    7    8 1
  18    7   13 2
  19    8    9 2
  20    8   10 1
  21    9   12 1
  22   10   11 2
  23   11   12 1
  24   11   44 1
  25   12   19 1
  26   14   15 1
  27   14   16 2
  28   15   25 ar
  29   15   29 ar
  30   17   45 1
  31   17   46 1
  32   17   47 1
  33   18   48 1
  34   18   49 1
  35   18   50 1
  36   19   20 ar
  37   19   24 ar
  38   20   21 ar
  39   20   51 1
  40   21   22 ar
  41   21   52 1
  42   22   23 ar
  43   22   53 1
  44   23   24 ar
  45   23   54 1
  46   24   55 1
  47   25   26 ar
  48   26   27 ar
  49   26   30 1
  50   27   28 ar
  51   27   34 ar
  52   28   29 ar
  53   28   37 ar
  54   29   56 1
  55   30   31 1
  56   31   32 1
  57   31   33 1
  58   31   57 1
  59   32   58 1
  60   32   59 1
  61   32   60 1
  62   33   61 1
  63   33   62 1
  64   33   63 1
  65   34   35 ar
  66   34   64 1
  67   35   36 ar
  68   35   65 1
  69   36   37 ar
  70   36   66 1
  71   37   67 1

#	End of record

