#	Name: ASD08070680
#	Creating user name:	WinNT
#	Creation time:	15. 06. 2019 21:15

#	Modifying user name:	WinNT
#	Modification time:	15. 06. 2019 21:15

#	Program:	/corina/corina34_cracker 3.40 0067  02.08.2006

@<TRIPOS>MOLECULE
ASD08070680
  40   41    0    0    0
SMALL
NO_CHARGES


@<TRIPOS>ATOM
   1 O1            -0.0162     1.3402     0.0094 O.3     
   2 C2             0.0021    -0.0041     0.0020 C.2     
   3 C3             1.2653    -0.4496    -0.0125 C.2     
   4 C4             2.1197     0.7448    -0.0142 C.ar    
   5 C5             1.2355     1.8393     0.0001 C.ar    
   6 C6             3.4940     0.9558    -0.0258 C.ar    
   7 C7             3.9843     2.2594    -0.0231 C.ar    
   8 C8             3.0946     3.3411    -0.0087 C.ar    
   9 C9             1.7459     3.1334     0.0029 C.ar    
  10 C10            5.4413     2.5010    -0.0348 C.2     
  11 O11            6.2132     1.5618    -0.0469 O.2     
  12 N12            5.9153     3.7627    -0.0322 N.am    
  13 C13            7.5047     6.7637    -2.7233 C.3     
  14 C14            7.2208     5.3872    -2.1187 C.3     
  15 C15            7.6444     5.3788    -0.6485 C.3     
  16 C16            7.3605     4.0023    -0.0438 C.3     
  17 C17            7.8970     3.9539     1.3882 C.3     
  18 C18            7.7255     2.5410     1.9496 C.3     
  19 C19            8.2621     2.4925     3.3816 C.3     
  20 H20           -0.8752    -0.6339     0.0074 H       
  21 H21            1.5899    -1.4796    -0.0208 H       
  22 H22            4.1745     0.1172    -0.0365 H       
  23 H23            3.4800     4.3500    -0.0067 H       
  24 H24            1.0719     3.9773     0.0139 H       
  25 H25            5.2994     4.5121    -0.0226 H       
  26 H26            7.2030     6.7696    -3.7707 H       
  27 H27            6.9427     7.5226    -2.1790 H       
  28 H28            8.5707     6.9794    -2.6511 H       
  29 H29            6.1549     5.1714    -2.1909 H       
  30 H30            7.7829     4.6283    -2.6630 H       
  31 H31            8.7103     5.5946    -0.5762 H       
  32 H32            7.0823     6.1377    -0.1041 H       
  33 H33            7.8513     3.2345    -0.6419 H       
  34 H34            8.9542     4.2194     1.3893 H       
  35 H35            7.3443     4.6604     2.0074 H       
  36 H36            6.6684     2.2754     1.9485 H       
  37 H37            8.2783     1.8344     1.3304 H       
  38 H38            9.3192     2.7581     3.3827 H       
  39 H39            7.7093     3.1990     4.0008 H       
  40 H40            8.1399     1.4859     3.7815 H       
@<TRIPOS>BOND
   1    1    2 1
   2    1    5 1
   3    2    3 2
   4    2   20 1
   5    3    4 1
   6    3   21 1
   7    4    5 ar
   8    4    6 ar
   9    5    9 ar
  10    6    7 ar
  11    6   22 1
  12    7    8 ar
  13    7   10 1
  14    8    9 ar
  15    8   23 1
  16    9   24 1
  17   10   11 2
  18   10   12 am
  19   12   16 1
  20   12   25 1
  21   13   14 1
  22   13   26 1
  23   13   27 1
  24   13   28 1
  25   14   15 1
  26   14   29 1
  27   14   30 1
  28   15   16 1
  29   15   31 1
  30   15   32 1
  31   16   17 1
  32   16   33 1
  33   17   18 1
  34   17   34 1
  35   17   35 1
  36   18   19 1
  37   18   36 1
  38   18   37 1
  39   19   38 1
  40   19   39 1
  41   19   40 1

#	End of record

