#	Name: ASD03730741
#	Creating user name:	WinNT
#	Creation time:	15. 06. 2019 20:44

#	Modifying user name:	WinNT
#	Modification time:	15. 06. 2019 20:44

#	Program:	/corina/corina34_cracker 3.40 0067  02.08.2006

@<TRIPOS>MOLECULE
ASD03730741
  62   68    0    0    0
SMALL
NO_CHARGES


@<TRIPOS>ATOM
   1 C1             1.3364    -1.2476    -2.5727 C.2     
   2 C2             0.7348    -1.4935    -1.2451 C.ar    
   3 C3             1.4813    -1.2752    -0.0858 C.ar    
   4 C4             0.9137    -1.5061     1.1500 C.ar    
   5 C5            -0.3925    -1.9536     1.2421 C.ar    
   6 C6            -1.1377    -2.1723     0.0972 C.ar    
   7 C7            -0.5840    -1.9393    -1.1449 C.ar    
   8 O8             2.4540    -0.7766    -2.6558 O.2     
   9 N9             0.6481    -1.5509    -3.6911 N.am    
  10 C10            2.9043    -0.7889    -0.1842 C.3     
  11 O11            1.4633    -3.3806     6.3654 O.3     
  12 C12            1.6903    -3.4643     7.7847 C.3     
  13 O13            3.1233    -3.3968     7.9067 O.3     
  14 C14            3.5510    -2.6985     6.8139 C.ar    
  15 C15            2.5302    -2.6898     5.8661 C.ar    
  16 C16            4.7479    -2.0583     6.5472 C.ar    
  17 C17            4.9428    -1.4043     5.3345 C.ar    
  18 C18            3.9187    -1.4094     4.3922 C.ar    
  19 C19            2.7219    -2.0416     4.6575 C.ar    
  20 O20            6.0249    -0.7069     4.8840 O.3     
  21 C21            4.4340    -0.6571     3.1946 C.3     
  22 C22            5.9452    -0.5792     3.4513 C.3     
  23 N23            3.4120    -0.4896     1.1570 N.am    
  24 C24            4.1207    -1.3590     1.9047 C.2     
  25 C25            3.8173     0.7042     3.0668 C.ar    
  26 C26            3.7555     1.8023     3.8953 C.ar    
  27 C27            3.0957     2.9460     3.4820 C.ar    
  28 C28            2.4980     2.9833     2.2353 C.ar    
  29 C29            2.5563     1.8856     1.4022 C.ar    
  30 C30            3.2187     0.7302     1.8098 C.ar    
  31 O31            4.4425    -2.4869     1.5958 O.2     
  32 C32            1.2011    -1.2817    -4.9470 C.ar    
  33 C33            0.5571    -1.7161    -6.0982 C.ar    
  34 C34            1.1069    -1.4482    -7.3386 C.ar    
  35 C35            2.2985    -0.7477    -7.4320 C.ar    
  36 C36            2.9404    -0.3152    -6.2868 C.ar    
  37 C37            2.3923    -0.5744    -5.0456 C.ar    
  38 C38           -0.7385    -2.4789    -5.9958 C.3     
  39 F39            0.4819    -1.8700    -8.4597 F       
  40 H40            1.4901    -1.3377     2.0476 H       
  41 H41           -0.8321    -2.1332     2.2121 H       
  42 H42           -2.1564    -2.5222     0.1760 H       
  43 H43           -1.1682    -2.1061    -2.0378 H       
  44 H44           -0.2308    -1.9558    -3.6248 H       
  45 H45            3.5215    -1.5617    -0.6423 H       
  46 H46            2.9385     0.1131    -0.7953 H       
  47 H47            1.2223    -2.6241     8.2976 H       
  48 H48            1.3166    -4.4101     8.1772 H       
  49 H49            5.5365    -2.0662     7.2852 H       
  50 H50            1.9324    -2.0314     3.9207 H       
  51 H51            6.3442     0.3813     3.1254 H       
  52 H52            6.4642    -1.4021     2.9598 H       
  53 H53            4.2227     1.7709     4.8685 H       
  54 H54            3.0478     3.8077     4.1313 H       
  55 H55            1.9829     3.8760     1.9128 H       
  56 H56            2.0867     1.9222     0.4303 H       
  57 H57            2.7268    -0.5395    -8.4013 H       
  58 H58            3.8694     0.2303    -6.3627 H       
  59 H59            2.8925    -0.2317    -4.1519 H       
  60 H60           -1.5743    -1.7793    -6.0119 H       
  61 H61           -0.8234    -3.1656    -6.8380 H       
  62 H62           -0.7551    -3.0435    -5.0636 H       
@<TRIPOS>BOND
   1    1    2 1
   2    1    8 2
   3    1    9 am
   4    2    3 ar
   5    2    7 ar
   6    3    4 ar
   7    3   10 1
   8    4    5 ar
   9    4   40 1
  10    5    6 ar
  11    5   41 1
  12    6    7 ar
  13    6   42 1
  14    7   43 1
  15    9   32 1
  16    9   44 1
  17   10   23 1
  18   10   45 1
  19   10   46 1
  20   11   12 1
  21   11   15 1
  22   12   13 1
  23   12   47 1
  24   12   48 1
  25   13   14 1
  26   14   15 ar
  27   14   16 ar
  28   15   19 ar
  29   16   17 ar
  30   16   49 1
  31   17   18 ar
  32   17   20 1
  33   18   19 ar
  34   18   21 1
  35   19   50 1
  36   20   22 1
  37   21   22 1
  38   21   24 1
  39   21   25 1
  40   22   51 1
  41   22   52 1
  42   23   24 am
  43   23   30 1
  44   24   31 2
  45   25   26 ar
  46   25   30 ar
  47   26   27 ar
  48   26   53 1
  49   27   28 ar
  50   27   54 1
  51   28   29 ar
  52   28   55 1
  53   29   30 ar
  54   29   56 1
  55   32   33 ar
  56   32   37 ar
  57   33   34 ar
  58   33   38 1
  59   34   35 ar
  60   34   39 1
  61   35   36 ar
  62   35   57 1
  63   36   37 ar
  64   36   58 1
  65   37   59 1
  66   38   60 1
  67   38   61 1
  68   38   62 1

#	End of record

