#	Name: ASD01840489
#	Creating user name:	WinNT
#	Creation time:	15. 06. 2019 19:37

#	Modifying user name:	WinNT
#	Modification time:	15. 06. 2019 19:37

#	Program:	/corina/corina34_cracker 3.40 0067  02.08.2006

@<TRIPOS>MOLECULE
ASD01840489
  46   49    0    0    0
SMALL
NO_CHARGES


@<TRIPOS>ATOM
   1 C1            -1.0515     2.8727     0.6659 C.ar    
   2 C2            -1.3585     1.6515     0.1072 C.ar    
   3 N3            -0.4275     0.7202    -0.0093 N.ar    
   4 N4             0.7796     0.8977     0.3802 N.ar    
   5 C5             0.2754     3.0891     1.1024 C.ar    
   6 C6             0.8805     4.2551     1.7191 C.2     
   7 C7             1.1899     2.0404     0.9352 C.ar    
   8 S8             2.7702     2.5176     1.5398 S.3     
   9 C9             2.1965     4.1056     2.0102 C.2     
  10 C10           -2.0980     3.9486     0.8019 C.3     
  11 C11           -2.7603     1.3761    -0.3723 C.3     
  12 N12            0.1748     5.4203     1.9869 N.pl3   
  13 C13            3.0280     5.1345     2.6330 C.2     
  14 O14            2.5447     6.2129     2.9260 O.2     
  15 N15            4.3295     4.8892     2.8828 N.am    
  16 C16            5.4532     5.6330     3.4718 C.3     
  17 C17            5.2494     3.7577     2.6922 C.3     
  18 C18            6.3975     4.7775     2.6158 C.3     
  19 O19            6.6369     5.2997     1.3074 O.3     
  20 C20            7.6536     4.3439     3.3266 C.ar    
  21 C21            7.5773     3.8048     4.5976 C.ar    
  22 C22            8.7286     3.4071     5.2510 C.ar    
  23 C23            9.9576     3.5480     4.6344 C.ar    
  24 C24           10.0351     4.0873     3.3617 C.ar    
  25 C25            8.8805     4.4802     2.7058 C.ar    
  26 F26           11.2359     4.2260     2.7582 F       
  27 C27            7.1337     6.6396     1.2983 C.3     
  28 H28           -2.5421     3.8998     1.7961 H       
  29 H29           -1.6359     4.9252     0.6579 H       
  30 H30           -2.8728     3.7988     0.0500 H       
  31 H31           -2.8518     1.6729    -1.4172 H       
  32 H32           -2.9745     0.3116    -0.2769 H       
  33 H33           -3.4687     1.9447     0.2302 H       
  34 H34           -0.7942     5.4018     2.0285 H       
  35 H35            0.6506     6.2529     2.1323 H       
  36 H36            5.4623     6.6896     3.2042 H       
  37 H37            5.5691     5.4679     4.5430 H       
  38 H38            5.3115     3.0982     3.5578 H       
  39 H39            5.0847     3.2166     1.7604 H       
  40 H40            6.6175     3.6946     5.0803 H       
  41 H41            8.6679     2.9864     6.2438 H       
  42 H42           10.8571     3.2379     5.1454 H       
  43 H43            8.9393     4.8970     1.7112 H       
  44 H44            6.3602     7.3164     1.6610 H       
  45 H45            8.0083     6.7072     1.9453 H       
  46 H46            7.4117     6.9171     0.2815 H       
@<TRIPOS>BOND
   1    1    2 ar
   2    1    5 ar
   3    1   10 1
   4    2   11 1
   5    2    3 ar
   6    3    4 ar
   7    4    7 ar
   8    5    7 ar
   9    5    6 1
  10    6    9 2
  11    6   12 1
  12    7    8 1
  13    8    9 1
  14    9   13 1
  15   10   28 1
  16   10   29 1
  17   10   30 1
  18   11   31 1
  19   11   32 1
  20   11   33 1
  21   12   34 1
  22   12   35 1
  23   13   14 2
  24   13   15 am
  25   15   16 1
  26   15   17 1
  27   16   18 1
  28   16   36 1
  29   16   37 1
  30   17   18 1
  31   17   38 1
  32   17   39 1
  33   18   19 1
  34   18   20 1
  35   19   27 1
  36   20   21 ar
  37   20   25 ar
  38   21   22 ar
  39   21   40 1
  40   22   23 ar
  41   22   41 1
  42   23   24 ar
  43   23   42 1
  44   24   25 ar
  45   24   26 1
  46   25   43 1
  47   27   44 1
  48   27   45 1
  49   27   46 1

#	End of record

