#	Name: ASD01885588
#	Creating user name:	WinNT
#	Creation time:	15. 06. 2019 19:49

#	Modifying user name:	WinNT
#	Modification time:	15. 06. 2019 19:49

#	Program:	/corina/corina34_cracker 3.40 0067  02.08.2006

@<TRIPOS>MOLECULE
ASD01885588
  45   48    0    0    0
SMALL
NO_CHARGES


@<TRIPOS>ATOM
   1 C1            -0.0168     1.3905     0.0097 C.ar    
   2 C2             0.0021    -0.0041     0.0020 C.ar    
   3 C3            -1.1829    -0.7093     0.0095 C.ar    
   4 C4            -2.3961    -0.0325     0.0247 C.ar    
   5 C5            -2.4189     1.3599     0.0324 C.ar    
   6 C6            -1.2360     2.0696     0.0308 C.ar    
   7 C7             1.2550     2.1496     0.0016 C.2     
   8 N8            -3.5947    -0.7496     0.0318 N.pl3   
   9 C9             2.1445     2.0666     1.1006 C.2     
  10 C10            3.2998     2.7572     1.0914 C.2     
  11 N11            3.6353     3.5463     0.0285 N.pl3   
  12 C12            2.8011     3.6543    -1.0577 C.2     
  13 C13            1.5887     2.9423    -1.0820 C.2     
  14 C14            4.7095     4.3362    -0.2481 C.2     
  15 N15            4.5120     4.8719    -1.4250 N.2     
  16 N16            3.3889     4.4769    -1.9129 N.2     
  17 C17            5.9073     4.5539     0.6401 C.3     
  18 C18            6.9765     3.5075     0.3200 C.3     
  19 Cl19           0.5216     3.0653    -2.4457 Cl      
  20 C20           -3.5720    -2.2144     0.0232 C.3     
  21 C21           -3.4249    -2.7306     1.4560 C.3     
  22 C22           -4.8769    -2.7413    -0.5773 C.3     
  23 C23            8.3227     3.6310     1.0365 C.3     
  24 C24            7.3487     2.5169     1.4250 C.3     
  25 F25           -3.5999     2.0159     0.0471 F       
  26 H26            0.9445    -0.5314    -0.0101 H       
  27 H27           -1.1679    -1.7892     0.0032 H       
  28 H28           -1.2533     3.1495     0.0368 H       
  29 H29           -4.4422    -0.2778     0.0423 H       
  30 H30            1.8948     1.4472     1.9494 H       
  31 H31            3.9699     2.6866     1.9354 H       
  32 H32            6.3116     5.5513     0.4668 H       
  33 H33            5.6076     4.4597     1.6838 H       
  34 H34            6.9847     3.1426    -0.7071 H       
  35 H35           -2.7301    -2.5612    -0.5761 H       
  36 H36           -4.2668    -2.3838     2.0553 H       
  37 H37           -3.4080    -3.8205     1.4496 H       
  38 H38           -2.4953    -2.3553     1.8838 H       
  39 H39           -4.9816    -2.3735    -1.5981 H       
  40 H40           -4.8599    -3.8311    -0.5837 H       
  41 H41           -5.7187    -2.3945     0.0220 H       
  42 H42            9.2165     3.3470     0.4809 H       
  43 H43            8.4466     4.4577     1.7359 H       
  44 H44            6.8318     2.6107     2.3800 H       
  45 H45            7.6016     1.4999     1.1250 H       
@<TRIPOS>BOND
   1    1    2 ar
   2    1    7 1
   3    1    6 ar
   4    2    3 ar
   5    2   26 1
   6    3    4 ar
   7    3   27 1
   8    4    5 ar
   9    4    8 1
  10    5    6 ar
  11    5   25 1
  12    6   28 1
  13    7    9 1
  14    7   13 2
  15    8   20 1
  16    8   29 1
  17    9   10 2
  18    9   30 1
  19   10   11 1
  20   10   31 1
  21   11   12 1
  22   11   14 1
  23   12   13 1
  24   12   16 2
  25   13   19 1
  26   14   15 2
  27   14   17 1
  28   15   16 1
  29   17   18 1
  30   17   32 1
  31   17   33 1
  32   18   23 1
  33   18   24 1
  34   18   34 1
  35   20   21 1
  36   20   22 1
  37   20   35 1
  38   21   36 1
  39   21   37 1
  40   21   38 1
  41   22   39 1
  42   22   40 1
  43   22   41 1
  44   23   24 1
  45   23   42 1
  46   23   43 1
  47   24   44 1
  48   24   45 1

#	End of record

