#	Name: ASD01200519
#	Creating user name:	WinNT
#	Creation time:	15. 06. 2019 19:09

#	Modifying user name:	WinNT
#	Modification time:	15. 06. 2019 19:09

#	Program:	/corina/corina34_cracker 3.40 0067  02.08.2006

@<TRIPOS>MOLECULE
ASD01200519
  24   25    0    0    0
SMALL
NO_CHARGES


@<TRIPOS>ATOM
   1 N1             2.2307     1.3387     0.5647 N.ar    
   2 C2             2.2416     0.0209     0.5646 C.ar    
   3 C3             1.2057    -0.6961    -0.0206 C.ar    
   4 C4             0.1516    -0.0017    -0.6089 C.ar    
   5 C5             0.1813     1.3832    -0.5852 C.ar    
   6 C6             1.2474     2.0255     0.0161 C.ar    
   7 N7             1.2213    -2.0946    -0.0195 N.am    
   8 C8             0.0669    -2.7814     0.0900 C.2     
   9 O9            -0.9778    -2.1883     0.2860 O.2     
  10 C10            0.0693    -4.2422    -0.0268 C.2     
  11 C11           -1.0315    -5.0468     0.0656 C.2     
  12 C12           -0.7433    -6.3822    -0.0878 C.2     
  13 C13            0.5479    -6.6636    -0.2987 C.2     
  14 S14            1.4879    -5.2399    -0.3161 S.3     
  15 N15            1.0884    -8.0282    -0.4908 N.pl3   
  16 O16            0.3405    -8.9892    -0.4622 O.2     
  17 O17            2.2811    -8.1901    -0.6774 O.2     
  18 H18            3.0644    -0.5069     1.0239 H       
  19 H19           -0.6685    -0.5297    -1.0725 H       
  20 H20           -0.6190     1.9544    -1.0320 H       
  21 H21            1.2755     3.1050     0.0373 H       
  22 H22            2.0631    -2.5703    -0.0975 H       
  23 H23           -2.0285    -4.6710     0.2423 H       
  24 H24           -1.5032    -7.1481    -0.0412 H       
@<TRIPOS>BOND
   1    1    2 ar
   2    1    6 ar
   3    2    3 ar
   4    2   18 1
   5    3    4 ar
   6    3    7 1
   7    4    5 ar
   8    4   19 1
   9    5    6 ar
  10    5   20 1
  11    6   21 1
  12    7    8 am
  13    7   22 1
  14    8    9 2
  15    8   10 1
  16   10   11 2
  17   10   14 1
  18   11   12 1
  19   11   23 1
  20   12   13 2
  21   12   24 1
  22   13   14 1
  23   13   15 1
  24   15   16 2
  25   15   17 2

#	End of record

