#	Name: ASD04030009
#	Creating user name:	WinNT
#	Creation time:	15. 06. 2019 20:48

#	Modifying user name:	WinNT
#	Modification time:	15. 06. 2019 20:48

#	Program:	/corina/corina34_cracker 3.40 0067  02.08.2006

@<TRIPOS>MOLECULE
ASD04030009
  64   68    0    0    0
SMALL
NO_CHARGES


@<TRIPOS>ATOM
   1 C1            -0.0168     1.3904     0.0097 C.ar    
   2 C2            -9.4813     1.8792     0.0745 C.ar    
   3 C3           -10.0961     3.1219     0.0804 C.ar    
   4 C4            -9.3328     4.2793     0.0767 C.ar    
   5 C5            -7.9567     4.2006     0.0672 C.ar    
   6 C6            -8.1060     1.7876     0.0702 C.ar    
   7 C7            -6.4255    -1.6834    -1.1206 C.3     
   8 C8             1.1792     2.0999     0.0021 C.ar    
   9 C9             2.3913     1.4115    -0.0132 C.ar    
  10 C10            2.3970     0.0154    -0.0207 C.ar    
  11 C11            3.6676     2.1580    -0.0219 C.2     
  12 C12            6.1913     3.1041     1.2076 C.3     
  13 C13           -1.3114     2.1160     0.0197 C.ar    
  14 C14           -1.3301     3.5133     0.0216 C.ar    
  15 C15           -2.5244     4.1969     0.0309 C.ar    
  16 C16           -3.7288     3.5008     0.0381 C.ar    
  17 C17           -3.7132     2.0972     0.0358 C.ar    
  18 C18           -2.5064     1.4068     0.0215 C.ar    
  19 O19           -5.0167     3.9049     0.0471 O.3     
  20 C20           -5.8595     2.8597     0.0510 C.2     
  21 C21           -5.1294     1.6821     0.0444 C.2     
  22 C22           -5.6535     0.3121     0.0453 C.2     
  23 N23           -5.9020    -0.3151    -1.1215 N.am    
  24 O24           -5.8639    -0.2583     1.0996 O.2     
  25 C25           -7.3311     2.9508     0.0612 C.ar    
  26 F26          -11.4445     3.2053     0.0893 F       
  27 C27            1.2054    -0.6819    -0.0136 C.ar    
  28 C28            0.0021    -0.0041     0.0020 C.ar    
  29 N29            4.8385     1.4907    -0.0366 N.am    
  30 O30            3.6608     3.3735    -0.0157 O.2     
  31 C31            6.1030     2.2303    -0.0452 C.3     
  32 C32            6.1670     3.1167    -1.2907 C.3     
  33 C33            7.2539     1.2575    -0.0613 C.2     
  34 N34            7.1578     0.0889     0.6032 N.am    
  35 O35            8.2665     1.5262    -0.6723 O.2     
  36 C36            8.2198    -0.8089     0.5884 C.2     
  37 S37            8.2514    -2.3313     1.3732 S.3     
  38 C38            9.8851    -2.5908     0.7607 C.2     
  39 N39           10.2145    -1.5501     0.0634 N.2     
  40 N40            9.3500    -0.6345    -0.0275 N.2     
  41 H41          -10.0812     0.9811     0.0777 H       
  42 H42           -9.8174     5.2445     0.0814 H       
  43 H43           -7.3632     5.1029     0.0640 H       
  44 H44           -7.6282     0.8191     0.0698 H       
  45 H45           -6.5621    -2.0208    -2.1481 H       
  46 H46           -5.7207    -2.3417    -0.6127 H       
  47 H47           -7.3831    -1.7057    -0.6005 H       
  48 H48            1.1690     3.1798     0.0076 H       
  49 H49            3.3349    -0.5199    -0.0326 H       
  50 H50            6.1458     2.4726     2.0949 H       
  51 H51            7.1322     3.6544     1.2013 H       
  52 H52            5.3590     3.8077     1.2193 H       
  53 H53           -0.3995     4.0613     0.0160 H       
  54 H54           -2.5266     5.2769     0.0329 H       
  55 H55           -2.4978     0.3268     0.0157 H       
  56 H56           -5.7343     0.1395    -1.9618 H       
  57 H57            1.2142    -1.7618    -0.0198 H       
  58 H58           -0.9266    -0.5554     0.0079 H       
  59 H59            4.8439     0.5207    -0.0416 H       
  60 H60            7.1079     3.6670    -1.2971 H       
  61 H61            6.1041     2.4942    -2.1832 H       
  62 H62            5.3346     3.8203    -1.2790 H       
  63 H63            6.3479    -0.1259     1.0919 H       
  64 H64           10.5005    -3.4608     0.9361 H       
@<TRIPOS>BOND
   1    1   28 ar
   2    1    8 ar
   3    1   13 1
   4    2   41 1
   5    2    3 ar
   6    2    6 ar
   7    3    4 ar
   8    3   26 1
   9    4    5 ar
  10    4   42 1
  11    5   25 ar
  12    5   43 1
  13    6   44 1
  14    6   25 ar
  15    7   45 1
  16    7   46 1
  17    7   47 1
  18    7   23 1
  19    8    9 ar
  20    8   48 1
  21    9   10 ar
  22    9   11 1
  23   10   27 ar
  24   10   49 1
  25   11   29 am
  26   11   30 2
  27   12   31 1
  28   12   50 1
  29   12   51 1
  30   12   52 1
  31   13   18 ar
  32   13   14 ar
  33   14   53 1
  34   14   15 ar
  35   15   16 ar
  36   15   54 1
  37   16   17 ar
  38   16   19 1
  39   17   18 ar
  40   17   21 1
  41   18   55 1
  42   19   20 1
  43   20   25 1
  44   20   21 2
  45   21   22 1
  46   22   23 am
  47   22   24 2
  48   23   56 1
  49   27   57 1
  50   27   28 ar
  51   28   58 1
  52   29   59 1
  53   29   31 1
  54   31   33 1
  55   31   32 1
  56   32   60 1
  57   32   61 1
  58   32   62 1
  59   33   34 am
  60   33   35 2
  61   34   36 1
  62   34   63 1
  63   36   40 2
  64   36   37 1
  65   37   38 1
  66   38   39 2
  67   38   64 1
  68   39   40 1

#	End of record

