#	Name: ASD01940035
#	Creating user name:	WinNT
#	Creation time:	15. 06. 2019 20:11

#	Modifying user name:	WinNT
#	Modification time:	15. 06. 2019 20:11

#	Program:	/corina/corina34_cracker 3.40 0067  02.08.2006

@<TRIPOS>MOLECULE
ASD01940035
  47   49    0    0    0
SMALL
NO_CHARGES


@<TRIPOS>ATOM
   1 C1            -0.3054     1.4708     0.4978 C.ar    
   2 C2            -0.3517     0.2651    -0.1896 C.ar    
   3 C3            -1.5460    -0.4192    -0.3042 C.ar    
   4 C4            -2.6994     0.0972     0.2670 C.ar    
   5 C5            -2.6546     1.3029     0.9547 C.ar    
   6 C6            -1.4595     1.9854     1.0750 C.ar    
   7 N7             0.9045     2.1643     0.6141 N.pl3   
   8 C8             0.9122     3.5476     0.6067 C.2     
   9 C9             1.9972     4.3837     0.8288 C.2     
  10 C10            1.6812     5.7412     0.7537 C.2     
  11 N11            0.4454     6.0421     0.4927 N.2     
  12 S12           -0.4193     4.5960     0.3131 S.3     
  13 O13            2.6220     6.7021     0.9452 O.3     
  14 C14            3.3524     3.8863     1.1161 C.2     
  15 N15            3.7423     3.6609     2.4198 N.pl3   
  16 N16            4.1863     3.6584     0.1359 N.2     
  17 C17            5.0912     3.1659     2.7058 C.3     
  18 C18            6.0635     4.3452     2.7736 C.3     
  19 C19            5.0901     2.4281     4.0462 C.3     
  20 O20            4.7951     3.3502     5.0972 O.3     
  21 O21           -3.8748    -0.5770     0.1532 O.3     
  22 C22           -3.8959    -1.6976    -0.6162 C.ar    
  23 C23           -3.5503    -2.9246    -0.0664 C.ar    
  24 C24           -3.5724    -4.0630    -0.8505 C.ar    
  25 C25           -3.9384    -3.9792    -2.1830 C.ar    
  26 C26           -4.2683    -1.6173    -1.9500 C.ar    
  27 C27           -4.2833    -2.7558    -2.7323 C.ar    
  28 Cl28          -3.0902    -3.0293     1.6043 Cl      
  29 F29           -3.9587    -5.0923    -2.9484 F       
  30 Cl30          -4.0988     1.9487     1.6694 Cl      
  31 H31            0.5462    -0.1374    -0.6349 H       
  32 H32           -1.5817    -1.3567    -0.8392 H       
  33 H33           -1.4242     2.9228     1.6100 H       
  34 H34            1.7376     1.6751     0.6998 H       
  35 H35            3.0760     6.9748     0.1361 H       
  36 H36            3.1234     3.8301     3.1473 H       
  37 H37            5.0794     3.3306     0.3253 H       
  38 H38            5.4028     2.4830     1.9154 H       
  39 H39            5.7519     5.0281     3.5640 H       
  40 H40            7.0671     3.9769     2.9863 H       
  41 H41            6.0643     4.8708     1.8187 H       
  42 H42            4.3339     1.6433     4.0284 H       
  43 H43            6.0707     1.9839     4.2171 H       
  44 H44            4.7778     2.9506     5.9776 H       
  45 H45           -3.3036    -5.0179    -0.4235 H       
  46 H46           -4.5421    -0.6642    -2.3779 H       
  47 H47           -4.5682    -2.6923    -3.7721 H       
@<TRIPOS>BOND
   1    1    2 ar
   2    1    7 1
   3    1    6 ar
   4    2    3 ar
   5    2   31 1
   6    3    4 ar
   7    3   32 1
   8    4    5 ar
   9    4   21 1
  10    5    6 ar
  11    5   30 1
  12    6   33 1
  13    7    8 1
  14    7   34 1
  15    8    9 2
  16    8   12 1
  17    9   10 1
  18    9   14 1
  19   10   11 2
  20   10   13 1
  21   11   12 1
  22   13   35 1
  23   14   15 1
  24   14   16 2
  25   15   17 1
  26   15   36 1
  27   16   37 1
  28   17   18 1
  29   17   19 1
  30   17   38 1
  31   18   39 1
  32   18   40 1
  33   18   41 1
  34   19   20 1
  35   19   42 1
  36   19   43 1
  37   20   44 1
  38   21   22 1
  39   22   23 ar
  40   22   26 ar
  41   23   24 ar
  42   23   28 1
  43   24   25 ar
  44   24   45 1
  45   25   27 ar
  46   25   29 1
  47   26   27 ar
  48   26   46 1
  49   27   47 1

#	End of record

