#	Name: ASD00069278
#	Creating user name:	WinNT
#	Creation time:	15. 06. 2019 18:29

#	Modifying user name:	WinNT
#	Modification time:	15. 06. 2019 18:29

#	Program:	/corina/corina34_cracker 3.40 0067  02.08.2006

@<TRIPOS>MOLECULE
ASD00069278
  53   55    0    0    0
SMALL
NO_CHARGES


@<TRIPOS>ATOM
   1 C1            -0.0158     1.3128     0.0093 C.2     
   2 N2             0.0021    -0.0041     0.0020 N.2     
   3 C3             1.2700    -0.4236    -0.0123 C.2     
   4 C4             2.0843     0.6886    -0.0141 C.2     
   5 N5             1.2734     1.7694    -0.0006 N.pl3   
   6 C6            -1.2219     2.1529     0.0198 C.2     
   7 O7            -2.3298     1.6329     0.0229 O.co2   
   8 O8            -1.1182     3.3724     0.0255 O.co2   
   9 C9             1.6970     3.1718     0.0022 C.3     
  10 O10            3.1244     3.2382    -0.0114 O.3     
  11 C11            3.6444     4.5693    -0.0100 C.3     
  12 C12            5.1735     4.5195    -0.0251 C.3     
  13 Si13           5.8513     6.2548    -0.0232 Si      
  14 C14            5.2742     7.1453     1.5080 C.3     
  15 C15            7.7133     6.1942    -0.0417 C.3     
  16 C16            5.2445     7.1603    -1.5341 C.3     
  17 N17            1.7214    -4.0270    -0.0929 N.pl3   
  18 N18            3.0478    -3.5929     0.0194 N.2     
  19 C19            3.0548    -2.2866     0.0614 C.2     
  20 C20            1.7226    -1.8388    -0.0235 C.2     
  21 C21            0.9232    -2.9395    -0.1178 C.2     
  22 C22            1.2775    -5.4207    -0.1755 C.3     
  23 C23            1.9847    -6.1064    -1.3160 C.ar    
  24 C24            3.1907    -6.7457    -1.0971 C.ar    
  25 C25            3.8394    -7.3746    -2.1432 C.ar    
  26 C26            3.2820    -7.3647    -3.4082 C.ar    
  27 C27            2.0756    -6.7262    -3.6269 C.ar    
  28 C28            1.4247    -6.1010    -2.5798 C.ar    
  29 H29            3.1642     0.6949    -0.0241 H       
  30 H30            1.3016     3.6726    -0.8816 H       
  31 H31            1.3189     3.6638     0.8983 H       
  32 H32            3.2893     5.0990    -0.8939 H       
  33 H33            3.3067     5.0903     0.8859 H       
  34 H34            5.5286     3.9898     0.8588 H       
  35 H35            5.5112     3.9985    -0.9210 H       
  36 H36            5.6292     6.6156     2.3920 H       
  37 H37            5.6708     8.1606     1.5091 H       
  38 H38            4.1848     7.1808     1.5188 H       
  39 H39            8.0510     5.6732    -0.9376 H       
  40 H40            8.1099     7.2095    -0.0406 H       
  41 H41            8.0683     5.6645     0.8423 H       
  42 H42            4.1551     7.1957    -1.5233 H       
  43 H43            5.6411     8.1755    -1.5330 H       
  44 H44            5.5822     6.6393    -2.4300 H       
  45 H45            3.9301    -1.6598     0.1466 H       
  46 H46           -0.1538    -2.9406    -0.1983 H       
  47 H47            1.5120    -5.9326     0.7578 H       
  48 H48            0.2012    -5.4497    -0.3454 H       
  49 H49            3.6262    -6.7534    -0.1088 H       
  50 H50            4.7820    -7.8734    -1.9724 H       
  51 H51            3.7892    -7.8555    -4.2257 H       
  52 H52            1.6403    -6.7182    -4.6152 H       
  53 H53            0.4804    -5.6053    -2.7499 H       
@<TRIPOS>BOND
   1    1    2 2
   2    1    5 1
   3    1    6 1
   4    2    3 1
   5    3    4 2
   6    3   20 1
   7    4    5 1
   8    4   29 1
   9    5    9 1
  10    6    7 ar
  11    6    8 ar
  12    9   10 1
  13    9   30 1
  14    9   31 1
  15   10   11 1
  16   11   12 1
  17   11   32 1
  18   11   33 1
  19   12   13 1
  20   12   34 1
  21   12   35 1
  22   13   14 1
  23   13   15 1
  24   13   16 1
  25   14   36 1
  26   14   37 1
  27   14   38 1
  28   15   39 1
  29   15   40 1
  30   15   41 1
  31   16   42 1
  32   16   43 1
  33   16   44 1
  34   17   18 1
  35   17   21 1
  36   17   22 1
  37   18   19 2
  38   19   20 1
  39   19   45 1
  40   20   21 2
  41   21   46 1
  42   22   23 1
  43   22   47 1
  44   22   48 1
  45   23   24 ar
  46   23   28 ar
  47   24   25 ar
  48   24   49 1
  49   25   26 ar
  50   25   50 1
  51   26   27 ar
  52   26   51 1
  53   27   28 ar
  54   27   52 1
  55   28   53 1

#	End of record

