#	Name: ASD03331497
#	Creating user name:	WinNT
#	Creation time:	15. 06. 2019 20:39

#	Modifying user name:	WinNT
#	Modification time:	15. 06. 2019 20:39

#	Program:	/corina/corina34_cracker 3.40 0067  02.08.2006

@<TRIPOS>MOLECULE
ASD03331497
  56   58    0    0    0
SMALL
NO_CHARGES


@<TRIPOS>ATOM
   1 C1             0.3431     0.8040     1.7702 C.ar    
   2 C2             0.2669    -0.6081     1.3361 C.2     
   3 N3            -0.7793    -1.4544     1.5621 N.pl3   
   4 C4            -0.4453    -2.6613     1.0264 C.2     
   5 C5             0.7827    -2.5246     0.4590 C.2     
   6 N6             1.1920    -1.2531     0.6648 N.2     
   7 C7             1.5310    -3.5731    -0.2566 C.2     
   8 N8             2.7457    -3.3009    -0.7731 N.am    
   9 C9             1.5794     1.4451     1.8518 C.ar    
  10 O10            1.0524    -4.6843    -0.3811 O.2     
  11 C11            3.4896    -4.3433    -1.4845 C.3     
  12 C12            3.0393    -4.3839    -2.9462 C.3     
  13 C13            4.9644    -4.0399    -1.4214 C.2     
  14 C14            3.2496    -3.0087    -3.5830 C.3     
  15 C15            3.8614    -5.4281    -3.7043 C.3     
  16 C16            1.5566    -4.7555    -3.0129 C.3     
  17 C17            1.6463     2.7624     2.2567 C.ar    
  18 C18            0.4887     3.4495     2.5822 C.ar    
  19 C19           -0.7446     2.8172     2.5030 C.ar    
  20 C20           -0.8220     1.5006     2.0937 C.ar    
  21 N21            5.8638    -5.0133    -1.6664 N.am    
  22 O22            5.3420    -2.9197    -1.1502 O.2     
  23 C23            7.2952    -4.7452    -1.5069 C.3     
  24 C24           -2.0428    -1.1374     2.2322 C.3     
  25 C25           -2.6207    -2.4116     2.8532 C.3     
  26 O26           -3.4300    -3.0959     1.8950 O.3     
  27 C27           -2.7388    -3.5255     0.7253 C.3     
  28 C28           -1.2992    -3.8999     1.0929 C.3     
  29 F29           -1.8706     3.4920     2.8221 F       
  30 F30            0.5599     4.7392     2.9784 F       
  31 H31            3.1274    -2.4147    -0.6738 H       
  32 H32            2.4832     0.9108     1.5988 H       
  33 H33            3.2972    -5.3095    -1.0181 H       
  34 H34            4.3059    -2.7440    -3.5354 H       
  35 H35            2.9288    -3.0376    -4.6243 H       
  36 H36            2.6640    -2.2648    -3.0429 H       
  37 H37            3.7148    -6.4071    -3.2481 H       
  38 H38            3.5378    -5.4599    -4.7446 H       
  39 H39            4.9173    -5.1611    -3.6602 H       
  40 H40            0.9710    -4.0116    -2.4728 H       
  41 H41            1.2358    -4.7844    -4.0542 H       
  42 H42            1.4068    -5.7352    -2.5593 H       
  43 H43            2.6034     3.2587     2.3202 H       
  44 H44           -1.7814     1.0086     2.0321 H       
  45 H45            5.5633    -5.8915    -1.9485 H       
  46 H46            7.8623    -5.6444    -1.7476 H       
  47 H47            7.5908    -3.9387    -2.1778 H       
  48 H48            7.4974    -4.4531    -0.4764 H       
  49 H49           -1.8645    -0.3999     3.0148 H       
  50 H50           -2.7486    -0.7342     1.5060 H       
  51 H51           -1.8054    -3.0623     3.1691 H       
  52 H52           -3.2288    -2.1489     3.7188 H       
  53 H53           -3.2439    -4.3942     0.3032 H       
  54 H54           -2.7287    -2.7189    -0.0077 H       
  55 H55           -0.9231    -4.6415     0.3882 H       
  56 H56           -1.2742    -4.3073     2.1036 H       
@<TRIPOS>BOND
   1    1    2 1
   2    1    9 ar
   3    1   20 ar
   4    2    3 1
   5    2    6 2
   6    3    4 1
   7    3   24 1
   8    4    5 2
   9    4   28 1
  10    5    6 1
  11    5    7 1
  12    7    8 am
  13    7   10 2
  14    8   11 1
  15    8   31 1
  16    9   17 ar
  17    9   32 1
  18   11   12 1
  19   11   13 1
  20   11   33 1
  21   12   14 1
  22   12   15 1
  23   12   16 1
  24   13   21 am
  25   13   22 2
  26   14   34 1
  27   14   35 1
  28   14   36 1
  29   15   37 1
  30   15   38 1
  31   15   39 1
  32   16   40 1
  33   16   41 1
  34   16   42 1
  35   17   18 ar
  36   17   43 1
  37   18   19 ar
  38   18   30 1
  39   19   20 ar
  40   19   29 1
  41   20   44 1
  42   21   23 1
  43   21   45 1
  44   23   46 1
  45   23   47 1
  46   23   48 1
  47   24   25 1
  48   24   49 1
  49   24   50 1
  50   25   26 1
  51   25   51 1
  52   25   52 1
  53   26   27 1
  54   27   28 1
  55   27   53 1
  56   27   54 1
  57   28   55 1
  58   28   56 1

#	End of record

