#	Name: ASD01914875
#	Creating user name:	WinNT
#	Creation time:	15. 06. 2019 20:04

#	Modifying user name:	WinNT
#	Modification time:	15. 06. 2019 20:04

#	Program:	/corina/corina34_cracker 3.40 0067  02.08.2006

@<TRIPOS>MOLECULE
ASD01914875
  42   43    0    0    0
SMALL
NO_CHARGES


@<TRIPOS>ATOM
   1 C1            -0.0183     1.4975     0.0103 C.3     
   2 C2             0.0021    -0.0041     0.0020 C.2     
   3 C3             1.0628    -0.7053    -0.3353 C.2     
   4 C4             2.3627    -0.0672    -0.7391 C.3     
   5 C5             2.1288     1.4052    -1.0866 C.3     
   6 N6             1.3522     2.0244     0.0000 N.3     
   7 C7             1.3525     3.4884    -0.1207 C.3     
   8 N8            -3.2787    -1.2113     1.0425 N.pl3   
   9 N9            -2.3706    -0.1876     0.7551 N.2     
  10 C10           -1.2255    -0.7271     0.3911 C.2     
  11 C11           -1.4007    -2.1806     0.4456 C.2     
  12 C12           -2.6845    -2.4053     0.8529 C.2     
  13 C13           -0.4170    -3.1729     0.1321 C.1     
  14 C14            0.3895    -3.9863    -0.1250 C.1     
  15 C15            1.4007    -5.0063    -0.4472 C.3     
  16 C16            0.7982    -6.3998    -0.2569 C.3     
  17 C17            1.8493    -7.4600    -0.5919 C.3     
  18 C18            1.2468    -8.8534    -0.4016 C.3     
  19 C19            2.2979    -9.9136    -0.7365 C.3     
  20 H20           -0.5496     1.8562    -0.8713 H       
  21 H21           -0.5326     1.8466     0.9057 H       
  22 H22            0.9972    -1.7832    -0.3213 H       
  23 H23            3.0724    -0.1369     0.0852 H       
  24 H24            2.7663    -0.5854    -1.6090 H       
  25 H25            3.0873     1.9143    -1.1876 H       
  26 H26            1.5727     1.4769    -2.0214 H       
  27 H27            0.8174     3.9227     0.7238 H       
  28 H28            2.3799     3.8524    -0.1258 H       
  29 H29            0.8603     3.7765    -1.0496 H       
  30 H30           -4.1938    -1.0818     1.3370 H       
  31 H31           -3.1437    -3.3720     0.9976 H       
  32 H32            1.7202    -4.8869    -1.4825 H       
  33 H33            2.2593    -4.8883     0.2138 H       
  34 H34            0.4788    -6.5192     0.7784 H       
  35 H35           -0.0603    -6.5178    -0.9180 H       
  36 H36            2.1687    -7.3405    -1.6271 H       
  37 H37            2.7079    -7.3420     0.0692 H       
  38 H38            0.9274    -8.9728     0.6337 H       
  39 H39            0.3882    -8.9714    -1.0626 H       
  40 H40            1.8687   -10.9063    -0.6009 H       
  41 H41            2.6173    -9.7941    -1.7718 H       
  42 H42            3.1565    -9.7956    -0.0755 H       
@<TRIPOS>BOND
   1    1    2 1
   2    1    6 1
   3    1   20 1
   4    1   21 1
   5    2    3 2
   6    2   10 1
   7    3    4 1
   8    3   22 1
   9    4    5 1
  10    4   23 1
  11    4   24 1
  12    5    6 1
  13    5   25 1
  14    5   26 1
  15    6    7 1
  16    7   27 1
  17    7   28 1
  18    7   29 1
  19    8    9 1
  20    8   12 1
  21    8   30 1
  22    9   10 2
  23   10   11 1
  24   11   12 2
  25   11   13 1
  26   12   31 1
  27   13   14 3
  28   14   15 1
  29   15   16 1
  30   15   32 1
  31   15   33 1
  32   16   17 1
  33   16   34 1
  34   16   35 1
  35   17   18 1
  36   17   36 1
  37   17   37 1
  38   18   19 1
  39   18   38 1
  40   18   39 1
  41   19   40 1
  42   19   41 1
  43   19   42 1

#	End of record

