#	Name: ASD01814486
#	Creating user name:	WinNT
#	Creation time:	15. 06. 2019 19:32

#	Modifying user name:	WinNT
#	Modification time:	15. 06. 2019 19:32

#	Program:	/corina/corina34_cracker 3.40 0067  02.08.2006

@<TRIPOS>MOLECULE
ASD01814486
  58   63    0    0    0
SMALL
NO_CHARGES


@<TRIPOS>ATOM
   1 C1            -0.0167     1.3806     0.0096 C.ar    
   2 C2             0.0021    -0.0041     0.0020 C.ar    
   3 N3             1.1326    -0.6807    -0.0124 N.ar    
   4 C4             2.3086    -0.0708    -0.0203 C.ar    
   5 C5             2.3609     1.3371    -0.0133 C.ar    
   6 C6             1.1832     2.0749     0.0019 C.ar    
   7 N7             3.4842    -0.7901    -0.0350 N.pl3   
   8 N8             4.6484    -0.2530    -0.0423 N.2     
   9 C9             4.8548     1.0374    -0.0373 C.2     
  10 C10            3.6946     1.9629    -0.0222 C.2     
  11 C11            3.3986    -2.2526    -0.0420 C.3     
  12 C12            3.3563    -2.7465    -1.4651 C.ar    
  13 C13            4.5342    -3.0423    -2.1271 C.ar    
  14 C14            4.5013    -3.4954    -3.4304 C.ar    
  15 C15            3.2784    -3.6547    -4.0792 C.ar    
  16 C16            2.0948    -3.3551    -3.4074 C.ar    
  17 C17            2.1393    -2.9077    -2.1025 C.ar    
  18 C18            3.2367    -4.1409    -5.4803 C.ar    
  19 C19            6.0311     1.9109    -0.0426 C.2     
  20 N20            5.5598     3.1763    -0.0315 N.am    
  21 N21            4.1628     3.1748    -0.0195 N.2     
  22 O22            7.2005     1.5647    -0.0542 O.2     
  23 C23            6.3950     4.3800    -0.0312 C.3     
  24 C24            6.0837     5.2193    -1.2742 C.3     
  25 C25            6.9052     6.5111    -1.2234 C.3     
  26 C26            6.5888     7.2571     0.0755 C.3     
  27 O27            6.8715     6.4097     1.1909 O.3     
  28 C28            6.0983     5.2083     1.2216 C.3     
  29 C29            4.4135    -4.4457    -6.1696 C.ar    
  30 C30            4.3293    -4.8956    -7.4716 C.ar    
  31 N31            3.1596    -5.0382    -8.0643 N.ar    
  32 C32            2.0256    -4.7616    -7.4492 C.ar    
  33 C33            2.0189    -4.3122    -6.1449 C.ar    
  34 C34            0.7200    -4.9442    -8.1794 C.3     
  35 H35           -0.9559     1.9138     0.0170 H       
  36 H36           -0.9338    -0.5431     0.0084 H       
  37 H37            1.2022     3.1547     0.0079 H       
  38 H38            4.2706    -2.6700     0.4617 H       
  39 H39            2.4937    -2.5661     0.4785 H       
  40 H40            5.4814    -2.9182    -1.6234 H       
  41 H41            5.4216    -3.7258    -3.9465 H       
  42 H42            1.1443    -3.4768    -3.9055 H       
  43 H43            1.2226    -2.6753    -1.5809 H       
  44 H44            7.4467     4.0936    -0.0391 H       
  45 H45            6.3455     4.6556    -2.1697 H       
  46 H46            5.0215     5.4631    -1.2929 H       
  47 H47            7.9675     6.2687    -1.2547 H       
  48 H48            6.6488     7.1397    -2.0762 H       
  49 H49            7.2023     8.1559     0.1372 H       
  50 H50            5.5348     7.5346     0.0878 H       
  51 H51            5.0379     5.4590     1.2489 H       
  52 H52            6.3584     4.6311     2.1090 H       
  53 H53            5.3746    -4.3306    -5.6907 H       
  54 H54            5.2333    -5.1337    -8.0125 H       
  55 H55            1.0869    -4.0877    -5.6475 H       
  56 H56            0.3520    -5.9574    -8.0178 H       
  57 H57           -0.0102    -4.2281    -7.8027 H       
  58 H58            0.8740    -4.7793    -9.2458 H       
@<TRIPOS>BOND
   1    1    2 ar
   2    1    6 ar
   3    1   35 1
   4    2    3 ar
   5    2   36 1
   6    3    4 ar
   7    4    5 ar
   8    4    7 1
   9    5    6 ar
  10    5   10 1
  11    6   37 1
  12    7    8 1
  13    7   11 1
  14    8    9 2
  15    9   10 1
  16    9   19 1
  17   10   21 2
  18   11   12 1
  19   11   38 1
  20   11   39 1
  21   12   13 ar
  22   12   17 ar
  23   13   14 ar
  24   13   40 1
  25   14   15 ar
  26   14   41 1
  27   15   16 ar
  28   15   18 1
  29   16   17 ar
  30   16   42 1
  31   17   43 1
  32   18   29 ar
  33   18   33 ar
  34   19   20 am
  35   19   22 2
  36   20   21 1
  37   20   23 1
  38   23   24 1
  39   23   28 1
  40   23   44 1
  41   24   25 1
  42   24   45 1
  43   24   46 1
  44   25   26 1
  45   25   47 1
  46   25   48 1
  47   26   27 1
  48   26   49 1
  49   26   50 1
  50   27   28 1
  51   28   51 1
  52   28   52 1
  53   29   30 ar
  54   29   53 1
  55   30   31 ar
  56   30   54 1
  57   31   32 ar
  58   32   33 ar
  59   32   34 1
  60   33   55 1
  61   34   56 1
  62   34   57 1
  63   34   58 1

#	End of record

