#	Name: ASD03330363
#	Creating user name:	WinNT
#	Creation time:	15. 06. 2019 20:37

#	Modifying user name:	WinNT
#	Modification time:	15. 06. 2019 20:37

#	Program:	/corina/corina34_cracker 3.40 0067  02.08.2006

@<TRIPOS>MOLECULE
ASD03330363
  49   52    0    0    0
SMALL
NO_CHARGES


@<TRIPOS>ATOM
   1 C1             0.0702     1.4569    -0.0006 C.3     
   2 N2            -0.1727     0.0189    -0.1819 N.3     
   3 C3             0.3100    -0.4416    -1.4965 C.3     
   4 C4             1.7241     0.0490    -1.6705 C.2     
   5 N5             2.2855     1.0256    -0.9008 N.pl3   
   6 C6             1.5722     1.7123     0.1796 C.3     
   7 C7             2.6653    -0.3484    -2.5626 C.2     
   8 N8             3.7829     0.3779    -2.3316 N.2     
   9 C9             3.5608     1.2042    -1.3339 C.2     
  10 C10            4.5356     2.1676    -0.7767 C.ar    
  11 C11            5.6932     2.4836    -1.4883 C.ar    
  12 C12            2.5004    -1.3850    -3.5966 C.2     
  13 O13            1.4408    -1.9721    -3.7056 O.2     
  14 C14            3.4007    -2.7319    -5.3381 C.ar    
  15 N15            3.5238    -1.6826    -4.4217 N.am    
  16 C16           -1.5949    -0.3016    -0.0014 C.3     
  17 C17            6.5984     3.3828    -0.9631 C.ar    
  18 C18            6.3600     3.9707     0.2663 C.ar    
  19 C19            5.2139     3.6615     0.9769 C.ar    
  20 C20            4.2982     2.7682     0.4600 C.ar    
  21 C21            2.1798    -2.9803    -5.9517 C.ar    
  22 C22           -1.8248    -1.7850    -0.2975 C.3     
  23 C23            4.5006    -3.5241    -5.6407 C.ar    
  24 C24            4.3757    -4.5596    -6.5461 C.ar    
  25 C25            3.1573    -4.8079    -7.1510 C.ar    
  26 C26            2.0630    -4.0138    -6.8605 C.ar    
  27 O27           -1.1000    -2.5769     0.6456 O.3     
  28 H28           -0.2867     1.9980    -0.8769 H       
  29 H29           -0.4652     1.8062     0.8823 H       
  30 H30            0.2904    -1.5307    -1.5354 H       
  31 H31           -0.3217    -0.0325    -2.2850 H       
  32 H32            1.7718     2.7828     0.1300 H       
  33 H33            1.8989     1.3209     1.1431 H       
  34 H34            5.8806     2.0251    -2.4480 H       
  35 H35            4.3456    -1.1690    -4.3799 H       
  36 H36           -1.8883    -0.0865     1.0260 H       
  37 H37           -2.1929     0.3021    -0.6841 H       
  38 H38            7.4951     3.6280    -1.5129 H       
  39 H39            7.0718     4.6737     0.6733 H       
  40 H40            5.0335     4.1238     1.9361 H       
  41 H41            3.4038     2.5277     1.0156 H       
  42 H42            1.3225    -2.3663    -5.7183 H       
  43 H43           -2.8885    -2.0104    -0.2198 H       
  44 H44           -1.4780    -2.0123    -1.3056 H       
  45 H45            5.4526    -3.3305    -5.1688 H       
  46 H46            5.2307    -5.1758    -6.7821 H       
  47 H47            3.0623    -5.6180    -7.8590 H       
  48 H48            1.1127    -4.2105    -7.3344 H       
  49 H49           -1.1997    -3.5302     0.5177 H       
@<TRIPOS>BOND
   1    1    2 1
   2    1    6 1
   3    1   28 1
   4    1   29 1
   5    2    3 1
   6    2   16 1
   7    3    4 1
   8    3   30 1
   9    3   31 1
  10    4    5 1
  11    4    7 2
  12    5    6 1
  13    5    9 1
  14    6   32 1
  15    6   33 1
  16    7    8 1
  17    7   12 1
  18    8    9 2
  19    9   10 1
  20   10   11 ar
  21   10   20 ar
  22   11   17 ar
  23   11   34 1
  24   12   13 2
  25   12   15 am
  26   14   23 ar
  27   14   15 1
  28   14   21 ar
  29   15   35 1
  30   16   22 1
  31   16   36 1
  32   16   37 1
  33   17   18 ar
  34   17   38 1
  35   18   19 ar
  36   18   39 1
  37   19   20 ar
  38   19   40 1
  39   20   41 1
  40   21   26 ar
  41   21   42 1
  42   22   27 1
  43   22   43 1
  44   22   44 1
  45   23   24 ar
  46   23   45 1
  47   24   25 ar
  48   24   46 1
  49   25   26 ar
  50   25   47 1
  51   26   48 1
  52   27   49 1

#	End of record

