#	Name: ASD08070220
#	Creating user name:	WinNT
#	Creation time:	15. 06. 2019 21:14

#	Modifying user name:	WinNT
#	Modification time:	15. 06. 2019 21:14

#	Program:	/corina/corina34_cracker 3.40 0067  02.08.2006

@<TRIPOS>MOLECULE
ASD08070220
  31   32    0    0    0
SMALL
NO_CHARGES


@<TRIPOS>ATOM
   1 N1            -0.0156     1.3022     0.0092 N.2     
   2 C2             0.0021    -0.0041     0.0020 C.2     
   3 C3            -1.2378    -0.8057     0.0091 C.2     
   4 N4            -2.4373    -0.1915     0.0239 N.am    
   5 C5            -4.0141    -1.3777     1.4690 C.3     
   6 O6            -1.1766    -2.0200     0.0015 O.2     
   7 C7            -4.2195    -0.1133     2.3056 C.3     
   8 C8            -3.6676    -0.9869     0.0309 C.3     
   9 C9            -4.8113    -0.1625    -0.5633 C.3     
  10 C10           -5.0168     1.1019     0.2733 C.3     
  11 C11           -5.3633     0.7112     1.7115 C.3     
  12 C12           -4.4648     0.2282    -2.0014 C.3     
  13 C13            1.2666    -0.5939    -0.0132 C.2     
  14 C14            2.2497     0.3345    -0.0176 C.2     
  15 S15            1.4456     1.8522    -0.0018 S.3     
  16 Cl16           3.9625     0.0522    -0.0346 Cl      
  17 Cl17           1.5434    -2.3077    -0.0245 Cl      
  18 H18           -2.4861     0.7773     0.0299 H       
  19 H19           -3.1992    -1.9650     1.8923 H       
  20 H20           -4.9294    -1.9695     1.4742 H       
  21 H21           -4.4664    -0.3916     3.3302 H       
  22 H22           -3.3042     0.4786     2.3004 H       
  23 H23           -3.5212    -1.8877    -0.5651 H       
  24 H24           -5.7266    -0.7544    -0.5581 H       
  25 H25           -4.1015     1.6937     0.2681 H       
  26 H26           -5.8316     1.6892    -0.1500 H       
  27 H27           -6.2786     0.1193     1.7167 H       
  28 H28           -5.5097     1.6119     2.3075 H       
  29 H29           -4.3185    -0.6726    -2.5974 H       
  30 H30           -5.2797     0.8155    -2.4247 H       
  31 H31           -3.5495     0.8200    -2.0066 H       
@<TRIPOS>BOND
   1    1    2 2
   2    1   15 1
   3    2    3 1
   4    2   13 1
   5    3    4 am
   6    3    6 2
   7    4    8 1
   8    4   18 1
   9    5    7 1
  10    5    8 1
  11    5   19 1
  12    5   20 1
  13    7   11 1
  14    7   21 1
  15    7   22 1
  16    8    9 1
  17    8   23 1
  18    9   12 1
  19    9   10 1
  20    9   24 1
  21   10   11 1
  22   10   25 1
  23   10   26 1
  24   11   27 1
  25   11   28 1
  26   12   29 1
  27   12   30 1
  28   12   31 1
  29   13   14 2
  30   13   17 1
  31   14   15 1
  32   14   16 1

#	End of record

