#	Name: ASD01915627
#	Creating user name:	WinNT
#	Creation time:	15. 06. 2019 20:05

#	Modifying user name:	WinNT
#	Modification time:	15. 06. 2019 20:05

#	Program:	/corina/corina34_cracker 3.40 0067  02.08.2006

@<TRIPOS>MOLECULE
ASD01915627
  44   47    0    0    0
SMALL
NO_CHARGES


@<TRIPOS>ATOM
   1 C1            -0.0166     1.3736     0.0096 C.2     
   2 N2             0.0021    -0.0041     0.0020 N.pl3   
   3 C3            -1.2451    -0.7769     0.0082 C.3     
   4 C4            -2.3363     0.0216    -0.7026 C.3     
   5 N5            -2.4035     1.4073    -0.2541 N.am    
   6 C6            -1.2845     2.1199     0.0311 C.2     
   7 C7             1.2836     1.7913    -0.0006 C.2     
   8 C8             2.0431     0.6135    -0.0136 C.2     
   9 N9             1.2130    -0.4035    -0.0109 N.2     
  10 C10            3.5477     0.5293    -0.0285 C.3     
  11 O11            4.0985     1.8479    -0.0274 O.3     
  12 C12            5.4536     1.9505    -0.0400 C.ar    
  13 O13           -1.3269     3.3093     0.2822 O.2     
  14 C14            6.0559     3.2003    -0.0398 C.ar    
  15 C15            6.2371     0.8056    -0.0473 C.ar    
  16 C16            7.6143     0.9125    -0.0601 C.ar    
  17 C17            8.2120     2.1593    -0.0656 C.ar    
  18 C18            7.4335     3.3019    -0.0526 C.ar    
  19 C19           -3.7133     2.0458    -0.1020 C.3     
  20 C20           -4.2278     1.8216     1.3213 C.3     
  21 C21           -5.5339     2.5130     1.7174 C.3     
  22 C22           -5.5079     1.0004     1.4886 C.3     
  23 C23           -1.6702    -1.0493     1.4525 C.3     
  24 H24           -1.0898    -1.7228    -0.5107 H       
  25 H25           -2.1402     0.0081    -1.7748 H       
  26 H26           -3.2987    -0.4553    -0.5171 H       
  27 H27            1.6474     2.8081     0.0007 H       
  28 H28            3.8903    -0.0082     0.8557 H       
  29 H29            3.8732     0.0003    -0.9242 H       
  30 H30            5.4482     4.0930    -0.0299 H       
  31 H31            5.7706    -0.1685    -0.0426 H       
  32 H32            8.2246     0.0215    -0.0655 H       
  33 H33            9.2889     2.2408    -0.0757 H       
  34 H34            7.9027     4.2746    -0.0573 H       
  35 H35           -3.6202     3.1153    -0.2905 H       
  36 H36           -4.4143     1.6110    -0.8145 H       
  37 H37           -3.4599     1.7190     2.0881 H       
  38 H38           -5.6254     2.8650     2.7450 H       
  39 H39           -6.0266     3.1276     0.9641 H       
  40 H40           -5.9835     0.6200     0.5846 H       
  41 H41           -5.5824     0.3574     2.3655 H       
  42 H42           -1.8271    -0.1028     1.9698 H       
  43 H43           -2.5967    -1.6235     1.4565 H       
  44 H44           -0.8896    -1.6158     1.9603 H       
@<TRIPOS>BOND
   1    1    2 1
   2    1    7 2
   3    1    6 1
   4    2    3 1
   5    2    9 1
   6    3    4 1
   7    3   23 1
   8    3   24 1
   9    4    5 1
  10    4   25 1
  11    4   26 1
  12    5    6 am
  13    5   19 1
  14    6   13 2
  15    7    8 1
  16    7   27 1
  17    8    9 2
  18    8   10 1
  19   10   11 1
  20   10   28 1
  21   10   29 1
  22   11   12 1
  23   12   14 ar
  24   12   15 ar
  25   14   18 ar
  26   14   30 1
  27   15   16 ar
  28   15   31 1
  29   16   17 ar
  30   16   32 1
  31   17   18 ar
  32   17   33 1
  33   18   34 1
  34   19   20 1
  35   19   35 1
  36   19   36 1
  37   20   21 1
  38   20   22 1
  39   20   37 1
  40   21   22 1
  41   21   38 1
  42   21   39 1
  43   22   40 1
  44   22   41 1
  45   23   42 1
  46   23   43 1
  47   23   44 1

#	End of record

