#	Name: ASD01885022
#	Creating user name:	WinNT
#	Creation time:	15. 06. 2019 19:49

#	Modifying user name:	WinNT
#	Modification time:	15. 06. 2019 19:49

#	Program:	/corina/corina34_cracker 3.40 0067  02.08.2006

@<TRIPOS>MOLECULE
ASD01885022
  55   59    0    0    0
SMALL
NO_CHARGES


@<TRIPOS>ATOM
   1 C1             0.2400     0.6742     0.2341 C.2     
   2 C2            -0.1294     0.0428     1.4414 C.2     
   3 C3            -1.2369    -0.7228     1.4967 C.2     
   4 N4            -2.0157    -0.8995     0.3902 N.pl3   
   5 C5            -1.6853    -0.2998    -0.8006 C.2     
   6 C6            -0.5374     0.5081    -0.8805 C.2     
   7 Cl7           -0.1039     1.2742    -2.3768 Cl      
   8 C8            -3.1620    -1.5983     0.1492 C.2     
   9 N9            -3.4774    -1.4148    -1.1059 N.2     
  10 N10           -2.6142    -0.6506    -1.6771 N.2     
  11 N11            1.3848     1.4656     0.1786 N.pl3   
  12 C12            2.7132     0.8768     0.3963 C.3     
  13 C13            3.4279     1.6661     1.4977 C.3     
  14 C14            3.4517     3.1497     1.1230 C.3     
  15 C15            2.0176     3.6716     1.0079 C.3     
  16 C16            1.2874     2.9040    -0.1046 C.3     
  17 C17            4.1840     3.9247     2.1880 C.ar    
  18 C18            5.5222     4.2280     2.0252 C.ar    
  19 C19            6.1944     4.9386     3.0023 C.ar    
  20 C20            5.5289     5.3465     4.1430 C.ar    
  21 C21            4.1901     5.0447     4.3079 C.ar    
  22 C22            3.5146     4.3382     3.3276 C.ar    
  23 C23           -3.9249    -2.4305     1.1474 C.3     
  24 C24           -4.9646    -1.5564     1.8515 C.3     
  25 F25            4.1060     3.3104    -0.1030 F       
  26 C26           -5.9252    -2.2451     2.8230 C.3     
  27 C27           -4.8079    -1.3478     3.3590 C.3     
  28 C28            6.2494     3.7835     0.7823 C.3     
  29 C29            6.0965     4.8478    -0.3062 C.3     
  30 F30            2.2059     4.0431     3.4874 F       
  31 H31            0.4784     0.1737     2.3245 H       
  32 H32           -1.5105    -1.2013     2.4254 H       
  33 H33            2.6059    -0.1636     0.7032 H       
  34 H34            3.2920     0.9301    -0.5258 H       
  35 H35            2.8966     1.5374     2.4407 H       
  36 H36            4.4495     1.3009     1.6024 H       
  37 H37            1.4996     3.5240     1.9555 H       
  38 H38            2.0355     4.7338     0.7640 H       
  39 H39            1.7512     3.1248    -1.0660 H       
  40 H40            0.2388     3.2009    -0.1257 H       
  41 H41            7.2405     5.1748     2.8744 H       
  42 H42            6.0552     5.9009     4.9059 H       
  43 H43            3.6704     5.3633     5.1994 H       
  44 H44           -4.4275    -3.2479     0.6303 H       
  45 H45           -3.2333    -2.8379     1.8848 H       
  46 H46           -5.3529    -0.7234     1.2654 H       
  47 H47           -6.9453    -1.8648     2.8765 H       
  48 H48           -5.8164    -3.3208     2.9606 H       
  49 H49           -3.9640    -1.8332     3.8492 H       
  50 H50           -5.0929    -0.3772     3.7651 H       
  51 H51            7.3065     3.6455     1.0096 H       
  52 H52            5.8272     2.8418     0.4315 H       
  53 H53            5.0401     5.0801    -0.4414 H       
  54 H54            6.6318     5.7499    -0.0100 H       
  55 H55            6.5085     4.4717    -1.2425 H       
@<TRIPOS>BOND
   1    1    2 1
   2    1   11 1
   3    1    6 2
   4    2    3 2
   5    2   31 1
   6    3    4 1
   7    3   32 1
   8    4    5 1
   9    4    8 1
  10    5    6 1
  11    5   10 2
  12    6    7 1
  13    8    9 2
  14    8   23 1
  15    9   10 1
  16   11   12 1
  17   11   16 1
  18   12   13 1
  19   12   33 1
  20   12   34 1
  21   13   14 1
  22   13   35 1
  23   13   36 1
  24   14   15 1
  25   14   25 1
  26   14   17 1
  27   15   16 1
  28   15   37 1
  29   15   38 1
  30   16   39 1
  31   16   40 1
  32   17   18 ar
  33   17   22 ar
  34   18   19 ar
  35   18   28 1
  36   19   20 ar
  37   19   41 1
  38   20   21 ar
  39   20   42 1
  40   21   22 ar
  41   21   43 1
  42   22   30 1
  43   23   24 1
  44   23   44 1
  45   23   45 1
  46   24   26 1
  47   24   27 1
  48   24   46 1
  49   26   27 1
  50   26   47 1
  51   26   48 1
  52   27   49 1
  53   27   50 1
  54   28   29 1
  55   28   51 1
  56   28   52 1
  57   29   53 1
  58   29   54 1
  59   29   55 1

#	End of record

