#	Name: ASD01200093
#	Creating user name:	WinNT
#	Creation time:	15. 06. 2019 19:08

#	Modifying user name:	WinNT
#	Modification time:	15. 06. 2019 19:08

#	Program:	/corina/corina34_cracker 3.40 0067  02.08.2006

@<TRIPOS>MOLECULE
ASD01200093
  53   56    0    0    0
SMALL
NO_CHARGES


@<TRIPOS>ATOM
   1 C1            -0.1409     1.6973     0.3069 C.2     
   2 C2            -0.1499     0.2292     0.1341 C.ar    
   3 C3             0.9848    -0.4257    -0.3466 C.ar    
   4 C4             0.9722    -1.8015    -0.5066 C.ar    
   5 C5            -0.1667    -2.5285    -0.1901 C.ar    
   6 C6            -1.2969    -1.8813     0.2881 C.ar    
   7 C7            -1.2909    -0.5060     0.4565 C.ar    
   8 O8             0.8559     2.3357     0.0302 O.2     
   9 N9            -1.2396     2.3286     0.7660 N.am    
  10 O10           -2.4098    -2.5978     0.5961 O.3     
  11 C11           -3.4390    -2.5905    -0.2911 C.ar    
  12 C12           -4.6124    -3.2716     0.0001 C.ar    
  13 C13           -5.6571    -3.2626    -0.9035 C.ar    
  14 C14           -5.5344    -2.5758    -2.0973 C.ar    
  15 C15           -4.3661    -1.8967    -2.3901 C.ar    
  16 C16           -3.3206    -1.8973    -1.4872 C.ar    
  17 S17            0.0988     4.7262     0.5856 S.3     
  18 C18           -1.2311     3.7080     0.9283 C.2     
  19 N19           -2.2307     4.4109     1.3614 N.2     
  20 C20           -2.0486     5.7149     1.4537 C.2     
  21 C21           -0.8377     6.1338     1.0809 C.2     
  22 C22           -3.1214     6.6546     1.9407 C.3     
  23 O23            2.0766    -2.4403    -0.9746 O.3     
  24 C24            3.1027    -2.6565    -0.1104 C.ar    
  25 C25            4.2769    -3.2442    -0.5589 C.ar    
  26 C26            5.3185    -3.4630     0.3217 C.ar    
  27 C27            5.1917    -3.0969     1.6490 C.ar    
  28 C28            4.0227    -2.5111     2.0985 C.ar    
  29 C29            2.9802    -2.2849     1.2208 C.ar    
  30 S30            6.5220    -3.3779     2.7697 S.o2    
  31 O31            5.8932    -3.4891     4.0392 O.2     
  32 O32            7.2309    -4.4723     2.2049 O.2     
  33 C33            7.5155    -1.8626     2.6821 C.3     
  34 H34            1.8713     0.1394    -0.5938 H       
  35 H35           -0.1734    -3.6010    -0.3167 H       
  36 H36           -2.1697    -0.0035     0.8326 H       
  37 H37           -2.0363     1.8196     0.9830 H       
  38 H38           -4.7086    -3.8085     0.9322 H       
  39 H39           -6.5705    -3.7928    -0.6775 H       
  40 H40           -6.3525    -2.5700    -2.8024 H       
  41 H41           -4.2726    -1.3616    -3.3235 H       
  42 H42           -2.4101    -1.3627    -1.7143 H       
  43 H43           -0.4921     7.1570     1.0826 H       
  44 H44           -3.0431     6.7663     3.0221 H       
  45 H45           -2.9957     7.6272     1.4649 H       
  46 H46           -4.1012     6.2500     1.6872 H       
  47 H47            4.3763    -3.5307    -1.5954 H       
  48 H48            6.2325    -3.9207    -0.0268 H       
  49 H49            3.9261    -2.2264     3.1358 H       
  50 H50            2.0690    -1.8232     1.5715 H       
  51 H51            6.9052    -1.0103     2.9805 H       
  52 H52            8.3707    -1.9496     3.3523 H       
  53 H53            7.8676    -1.7176     1.6607 H       
@<TRIPOS>BOND
   1    1    2 1
   2    1    8 2
   3    1    9 am
   4    2    3 ar
   5    2    7 ar
   6    3    4 ar
   7    3   34 1
   8    4    5 ar
   9    4   23 1
  10    5    6 ar
  11    5   35 1
  12    6    7 ar
  13    6   10 1
  14    7   36 1
  15    9   18 1
  16    9   37 1
  17   10   11 1
  18   11   12 ar
  19   11   16 ar
  20   12   13 ar
  21   12   38 1
  22   13   14 ar
  23   13   39 1
  24   14   15 ar
  25   14   40 1
  26   15   16 ar
  27   15   41 1
  28   16   42 1
  29   17   18 1
  30   17   21 1
  31   18   19 2
  32   19   20 1
  33   20   21 2
  34   20   22 1
  35   21   43 1
  36   22   44 1
  37   22   45 1
  38   22   46 1
  39   23   24 1
  40   24   25 ar
  41   24   29 ar
  42   25   26 ar
  43   25   47 1
  44   26   27 ar
  45   26   48 1
  46   27   28 ar
  47   27   30 1
  48   28   29 ar
  49   28   49 1
  50   29   50 1
  51   30   31 2
  52   30   32 2
  53   30   33 1
  54   33   51 1
  55   33   52 1
  56   33   53 1

#	End of record

