#	Name: ASD00310019
#	Creating user name:	WinNT
#	Creation time:	15. 06. 2019 18:33

#	Modifying user name:	WinNT
#	Modification time:	15. 06. 2019 18:33

#	Program:	/corina/corina34_cracker 3.40 0067  02.08.2006

@<TRIPOS>MOLECULE
ASD00310019
  18   18    0    0    0
SMALL
NO_CHARGES


@<TRIPOS>ATOM
   1 C1            -0.0178     1.4631     0.0101 C.2     
   2 C2             0.0021    -0.0041     0.0020 C.ar    
   3 C3            -1.2024    -0.7276     0.0096 C.ar    
   4 C4            -1.1706    -2.1131     0.0014 C.ar    
   5 C5             0.0407    -2.7786    -0.0142 C.ar    
   6 C6             1.2323    -2.0687    -0.0218 C.ar    
   7 C7             1.2213    -0.6920    -0.0192 C.ar    
   8 O8             1.0243     2.0838     0.0035 O.2     
   9 O9            -2.3901    -0.0734     0.0254 O.3     
  10 C10           -3.5726    -0.8757     0.0323 C.3     
  11 Br11           0.0737    -4.6693    -0.0247 Br      
  12 H12           -0.9604     1.9903     0.0174 H       
  13 H13           -2.0937    -2.6737     0.0076 H       
  14 H14            2.1734    -2.5985    -0.0336 H       
  15 H15            2.1517    -0.1437    -0.0297 H       
  16 H16           -3.5937    -1.4995    -0.8613 H       
  17 H17           -3.5760    -1.5103     0.9186 H       
  18 H18           -4.4502    -0.2293     0.0450 H       
@<TRIPOS>BOND
   1    1    2 1
   2    1    8 2
   3    1   12 1
   4    2    3 ar
   5    2    7 ar
   6    3    4 ar
   7    3    9 1
   8    4    5 ar
   9    4   13 1
  10    5    6 ar
  11    5   11 1
  12    6    7 ar
  13    6   14 1
  14    7   15 1
  15    9   10 1
  16   10   16 1
  17   10   17 1
  18   10   18 1

#	End of record

