#	Name: ASD05790120
#	Creating user name:	WinNT
#	Creation time:	15. 06. 2019 21:03

#	Modifying user name:	WinNT
#	Modification time:	15. 06. 2019 21:03

#	Program:	/corina/corina34_cracker 3.40 0067  02.08.2006

@<TRIPOS>MOLECULE
ASD05790120
  71   76    0    0    0
SMALL
NO_CHARGES


@<TRIPOS>ATOM
   1 C1             1.3179     0.9138     0.2415 C.3     
   2 C2             1.4210    -0.5905     0.1151 C.2     
   3 C3             2.0554    -1.1594    -1.1327 C.3     
   4 C4             3.4221    -0.4957    -1.3440 C.3     
   5 C5             3.2469     1.0313    -1.3485 C.3     
   6 C6             2.7063     1.5114    -0.0069 C.3     
   7 C7             3.9921    -0.9749    -2.6814 C.3     
   8 C8             3.1039    -0.5209    -3.8527 C.3     
   9 C9             3.0300     0.9925    -3.8049 C.3     
  10 C10            2.3032     1.3720    -2.4803 C.3     
  11 C11            2.1187     1.6654    -4.8290 C.3     
  12 C12            1.8599     3.0329    -4.1886 C.2     
  13 C13            1.9670     2.8472    -2.6848 C.3     
  14 C14            4.5992     1.6950    -1.6160 C.3     
  15 O15            1.0080    -1.3163     0.9874 O.2     
  16 C16            2.8511     1.9388    -6.1446 C.3     
  17 C17            1.9603     2.8345    -7.0058 C.3     
  18 C18            1.7026     4.1824    -6.3525 C.3     
  19 C19            1.6593     4.1258    -4.8558 C.2     
  20 C20            1.3697     5.3934    -4.0940 C.3     
  21 O21            2.7410     5.1103    -6.7603 O.3     
  22 C22            2.2454     5.7286    -7.9427 C.3     
  23 C23            0.7731     6.0540    -7.5638 C.3     
  24 C24            0.3575     4.7492    -6.8778 C.3     
  25 C25            2.8911     7.0323    -8.3710 C.3     
  26 C26            2.1315     7.5211    -9.6168 C.3     
  27 C27            0.6349     7.6355    -9.3414 C.3     
  28 N28            0.0804     6.3779    -8.8027 N.3     
  29 C29            2.6719     8.8922   -10.0277 C.3     
  30 C30           -0.2777     3.7879    -7.8845 C.3     
  31 H31            0.6148     1.2977    -0.4977 H       
  32 H32            0.9786     1.1762     1.2436 H       
  33 H33            2.1863    -2.2353    -1.0175 H       
  34 H34            1.4154    -0.9581    -1.9917 H       
  35 H35            4.0948    -0.7824    -0.5358 H       
  36 H36            2.6362     2.5991    -0.0133 H       
  37 H37            3.3825     1.1985     0.7887 H       
  38 H38            4.9935    -0.5646    -2.8115 H       
  39 H39            4.0498    -2.0633    -2.6767 H       
  40 H40            3.5440    -0.8408    -4.7972 H       
  41 H41            2.1051    -0.9443    -3.7461 H       
  42 H42            4.0313     1.4224    -3.8283 H       
  43 H43            1.3855     0.7919    -2.3832 H       
  44 H44            1.1953     1.1052    -4.9760 H       
  45 H45            1.0175     3.0876    -2.2063 H       
  46 H46            2.7624     3.4747    -2.2828 H       
  47 H47            5.0411     1.2690    -2.5168 H       
  48 H48            4.4571     2.7669    -1.7530 H       
  49 H49            5.2629     1.5218    -0.7688 H       
  50 H50            3.7955     2.4441    -5.9422 H       
  51 H51            3.0396     0.9989    -6.6634 H       
  52 H52            2.4448     2.9947    -7.9689 H       
  53 H53            1.0068     2.3325    -7.1700 H       
  54 H54            0.2941     5.4915    -3.9472 H       
  55 H55            1.8667     5.3563    -3.1246 H       
  56 H56            1.7388     6.2493    -4.6590 H       
  57 H57            2.2655     5.0165    -8.7678 H       
  58 H58            0.7323     6.8855    -6.8603 H       
  59 H59           -0.3249     4.9491    -6.0516 H       
  60 H60            2.8080     7.7688    -7.5718 H       
  61 H61            3.9398     6.8650    -8.6165 H       
  62 H62            2.2917     6.8160   -10.4324 H       
  63 H63            0.4664     8.4356    -8.6206 H       
  64 H64            0.1205     7.8816   -10.2702 H       
  65 H65            0.1675     5.6282    -9.4724 H       
  66 H66            3.7348     8.8104   -10.2553 H       
  67 H67            2.1374     9.2438   -10.9102 H       
  68 H68            2.5287     9.5991    -9.2105 H       
  69 H69            0.4634     3.5015    -8.6307 H       
  70 H70           -0.6316     2.8982    -7.3638 H       
  71 H71           -1.1172     4.2793    -8.3762 H       
@<TRIPOS>BOND
   1    1    2 1
   2    1    6 1
   3    1   31 1
   4    1   32 1
   5    2    3 1
   6    2   15 2
   7    3    4 1
   8    3   33 1
   9    3   34 1
  10    4    5 1
  11    4    7 1
  12    4   35 1
  13    5    6 1
  14    5   14 1
  15    5   10 1
  16    6   36 1
  17    6   37 1
  18    7    8 1
  19    7   38 1
  20    7   39 1
  21    8    9 1
  22    8   40 1
  23    8   41 1
  24    9   10 1
  25    9   11 1
  26    9   42 1
  27   10   13 1
  28   10   43 1
  29   11   12 1
  30   11   16 1
  31   11   44 1
  32   12   13 1
  33   12   19 2
  34   13   45 1
  35   13   46 1
  36   14   47 1
  37   14   48 1
  38   14   49 1
  39   16   17 1
  40   16   50 1
  41   16   51 1
  42   17   18 1
  43   17   52 1
  44   17   53 1
  45   18   19 1
  46   18   21 1
  47   18   24 1
  48   19   20 1
  49   20   54 1
  50   20   55 1
  51   20   56 1
  52   21   22 1
  53   22   23 1
  54   22   25 1
  55   22   57 1
  56   23   24 1
  57   23   28 1
  58   23   58 1
  59   24   30 1
  60   24   59 1
  61   25   26 1
  62   25   60 1
  63   25   61 1
  64   26   27 1
  65   26   29 1
  66   26   62 1
  67   27   28 1
  68   27   63 1
  69   27   64 1
  70   28   65 1
  71   29   66 1
  72   29   67 1
  73   29   68 1
  74   30   69 1
  75   30   70 1
  76   30   71 1

#	End of record

