#	Name: ASD02588014
#	Creating user name:	WinNT
#	Creation time:	15. 06. 2019 20:25

#	Modifying user name:	WinNT
#	Modification time:	15. 06. 2019 20:25

#	Program:	/corina/corina34_cracker 3.40 0067  02.08.2006

@<TRIPOS>MOLECULE
ASD02588014
  50   55    0    0    0
SMALL
NO_CHARGES


@<TRIPOS>ATOM
   1 C1            -0.0165     1.3665     0.0096 C.2     
   2 N2             0.0021    -0.0041     0.0020 N.pl3   
   3 N3            -1.2213    -0.6910     0.0096 N.2     
   4 C4            -2.3533    -0.0187     0.0236 C.2     
   5 N5            -2.3792     1.3193     0.0311 N.2     
   6 C6            -1.2661     2.0295     0.0303 C.2     
   7 C7             1.3053     1.8276    -0.0006 C.2     
   8 C8             2.1390     0.6912    -0.0146 C.2     
   9 C9             1.3014    -0.4331    -0.0127 C.2     
  10 N10           -1.3214     3.4097     0.0385 N.pl3   
  11 C11            1.7430     3.2369     0.0024 C.2     
  12 C12            3.6147     0.6858    -0.0292 C.2     
  13 C13           -3.6315    -0.7626     0.0309 C.2     
  14 N14            4.4457    -0.0920     0.7295 N.pl3   
  15 N15            5.6595     0.2032     0.4199 N.2     
  16 N16            5.6866     1.1159    -0.4847 N.2     
  17 C17            4.4369     1.4541    -0.8092 C.2     
  18 N18            1.2383     4.2537    -0.7627 N.pl3   
  19 N19            1.9639     5.4030    -0.4149 N.2     
  20 N20            2.8261     5.0811     0.4845 N.2     
  21 C21            2.7277     3.7859     0.7731 C.2     
  22 C22           -3.7967    -2.1199     0.0246 C.2     
  23 N23           -5.1133    -2.3389     0.0352 N.2     
  24 N24           -5.7319    -1.2123     0.0472 N.2     
  25 N25           -4.8932    -0.2359     0.0513 N.pl3   
  26 C26            1.7274    -1.7825    -0.0240 C.2     
  27 O27            2.9157    -2.0455    -0.0367 O.2     
  28 O28            0.8157    -2.7781    -0.0206 O.3     
  29 C29            1.3166    -4.1164    -0.0326 C.3     
  30 C30            0.1620    -5.0850    -0.0268 C.ar    
  31 C31           -0.3789    -5.5227    -1.2212 C.ar    
  32 C32           -1.4380    -6.4111    -1.2158 C.ar    
  33 C33           -1.9558    -6.8621    -0.0161 C.ar    
  34 C34           -1.4143    -6.4250     1.1783 C.ar    
  35 C35           -0.3524    -5.5400     1.1729 C.ar    
  36 H36           -2.1802     3.8607     0.0449 H       
  37 H37           -0.5015     3.9280     0.0379 H       
  38 H38            4.1687    -0.7502     1.3861 H       
  39 H39            4.1344     2.1914    -1.5380 H       
  40 H40            0.5226     4.1920    -1.4145 H       
  41 H41            3.3321     3.2545     1.4934 H       
  42 H42           -3.0166    -2.8667     0.0128 H       
  43 H43           -5.1170     0.7079     0.0600 H       
  44 H44            1.9166    -4.2718    -0.9292 H       
  45 H45            1.9336    -4.2814     0.8507 H       
  46 H46            0.0257    -5.1704    -2.1585 H       
  47 H47           -1.8611    -6.7526    -2.1490 H       
  48 H48           -2.7837    -7.5556    -0.0119 H       
  49 H49           -1.8191    -6.7770     2.1156 H       
  50 H50            0.0731    -5.2014     2.1060 H       
@<TRIPOS>BOND
   1    1    2 1
   2    1    7 2
   3    1    6 1
   4    2    3 1
   5    2    9 1
   6    3    4 2
   7    4    5 1
   8    4   13 1
   9    5    6 2
  10    6   10 1
  11    7    8 1
  12    7   11 1
  13    8    9 2
  14    8   12 1
  15    9   26 1
  16   10   36 1
  17   10   37 1
  18   11   18 1
  19   11   21 2
  20   12   14 1
  21   12   17 2
  22   13   22 2
  23   13   25 1
  24   14   15 1
  25   14   38 1
  26   15   16 2
  27   16   17 1
  28   17   39 1
  29   18   19 1
  30   18   40 1
  31   19   20 2
  32   20   21 1
  33   21   41 1
  34   22   23 1
  35   22   42 1
  36   23   24 2
  37   24   25 1
  38   25   43 1
  39   26   27 2
  40   26   28 1
  41   28   29 1
  42   29   30 1
  43   29   44 1
  44   29   45 1
  45   30   31 ar
  46   30   35 ar
  47   31   32 ar
  48   31   46 1
  49   32   33 ar
  50   32   47 1
  51   33   34 ar
  52   33   48 1
  53   34   35 ar
  54   34   49 1
  55   35   50 1

#	End of record

