#	Name: ASD01813467
#	Creating user name:	WinNT
#	Creation time:	15. 06. 2019 19:30

#	Modifying user name:	WinNT
#	Modification time:	15. 06. 2019 19:30

#	Program:	/corina/corina34_cracker 3.40 0067  02.08.2006

@<TRIPOS>MOLECULE
ASD01813467
  48   53    0    0    0
SMALL
NO_CHARGES


@<TRIPOS>ATOM
   1 C1            -0.0178     1.4608     0.0101 C.3     
   2 N2             0.0021    -0.0041     0.0020 N.pl3   
   3 C3             0.0074    -0.7668    -1.0996 C.2     
   4 C4             0.0281    -2.0910    -0.6990 C.ar    
   5 C5             0.0415    -3.3295    -1.3713 C.ar    
   6 C6             0.0609    -4.4956    -0.6383 C.ar    
   7 C7             0.0672    -4.4746     0.7688 C.ar    
   8 C8             0.0544    -3.3127     1.4628 C.ar    
   9 C9             0.0352    -2.0804     0.7725 C.ar    
  10 N10            0.0244    -0.8130     1.1436 N.2     
  11 C11            0.0751    -5.7991    -1.3460 C.ar    
  12 C12            0.0745    -5.8384    -2.7391 C.ar    
  13 C13            0.0877    -7.0535    -3.3937 C.ar    
  14 C14            0.1010    -8.2320    -2.6705 C.ar    
  15 C15            0.1153    -9.5553    -3.3914 C.3     
  16 N16            1.4560   -10.1404    -3.3115 N.am    
  17 C17            2.5478    -9.9277    -4.2694 C.3     
  18 C18            3.7144   -10.7354    -3.7549 C.2     
  19 C19            5.0132   -10.9269    -4.2337 C.2     
  20 C20            5.8779   -11.7288    -3.5503 C.2     
  21 C21            5.4480   -12.3565    -2.3650 C.2     
  22 N22            6.0385   -13.1693    -1.5035 N.2     
  23 N23            5.2088   -13.4711    -0.5669 N.2     
  24 C24            4.0590   -12.8778    -0.7731 C.2     
  25 N25            4.1687   -12.1571    -1.9093 N.pl3   
  26 C26            3.2972   -11.3446    -2.6044 C.2     
  27 C27            1.9030   -10.9611    -2.3452 C.2     
  28 O28            1.2456   -11.3346    -1.3922 O.2     
  29 C29            0.1017    -8.2002    -1.2852 C.ar    
  30 F30            0.1152    -9.3548    -0.5838 F       
  31 C31            0.0948    -6.9886    -0.6201 C.ar    
  32 H32            1.0048     1.8381     0.0023 H       
  33 H33           -0.5450     1.8219    -0.8730 H       
  34 H34           -0.5280     1.8123     0.9069 H       
  35 H35           -0.0030    -0.4111    -2.1193 H       
  36 H36            0.0363    -3.3640    -2.4507 H       
  37 H37            0.0822    -5.4097     1.3089 H       
  38 H38            0.0596    -3.3277     2.5427 H       
  39 H39            0.0634    -4.9191    -3.3058 H       
  40 H40            0.0872    -7.0840    -4.4733 H       
  41 H41           -0.6038   -10.2299    -2.9267 H       
  42 H42           -0.1528    -9.4025    -4.4368 H       
  43 H43            2.2539   -10.2801    -5.2581 H       
  44 H44            2.8114    -8.8708    -4.3097 H       
  45 H45            5.3312   -10.4406    -5.1440 H       
  46 H46            6.8830   -11.8818    -3.9145 H       
  47 H47            3.1819   -12.9523    -0.1474 H       
  48 H48            0.1002    -6.9638     0.4596 H       
@<TRIPOS>BOND
   1    1    2 1
   2    1   32 1
   3    1   33 1
   4    1   34 1
   5    2   10 1
   6    2    3 1
   7    3    4 2
   8    3   35 1
   9    4    9 ar
  10    4    5 ar
  11    5    6 ar
  12    5   36 1
  13    6    7 ar
  14    6   11 1
  15    7    8 ar
  16    7   37 1
  17    8    9 ar
  18    8   38 1
  19    9   10 2
  20   11   31 ar
  21   11   12 ar
  22   12   13 ar
  23   12   39 1
  24   13   14 ar
  25   13   40 1
  26   14   15 1
  27   14   29 ar
  28   15   16 1
  29   15   41 1
  30   15   42 1
  31   16   27 am
  32   16   17 1
  33   17   18 1
  34   17   43 1
  35   17   44 1
  36   18   26 2
  37   18   19 1
  38   19   20 2
  39   19   45 1
  40   20   21 1
  41   20   46 1
  42   21   25 1
  43   21   22 2
  44   22   23 1
  45   23   24 2
  46   24   25 1
  47   24   47 1
  48   25   26 1
  49   26   27 1
  50   27   28 2
  51   29   30 1
  52   29   31 ar
  53   31   48 1

#	End of record

