#	Name: ASD00431408
#	Creating user name:	WinNT
#	Creation time:	15. 06. 2019 18:35

#	Modifying user name:	WinNT
#	Modification time:	15. 06. 2019 18:35

#	Program:	/corina/corina34_cracker 3.40 0067  02.08.2006

@<TRIPOS>MOLECULE
ASD00431408
  32   33    0    0    0
SMALL
NO_CHARGES


@<TRIPOS>ATOM
   1 S1            -2.8018     1.3283     0.0257 S.3     
   2 C2            -2.3683    -0.3243    -0.0301 C.2     
   3 N3            -3.4301    -1.0672    -0.1145 N.2     
   4 C4            -4.5903    -0.4536    -0.1410 C.2     
   5 C5            -4.5069     0.8963    -0.0748 C.2     
   6 C6            -5.6358     1.8327    -0.0844 C.2     
   7 Cl7           -7.2611     1.2317    -0.1883 Cl      
   8 N8            -5.4193     3.1118    -0.0152 N.2     
   9 O9            -1.0986    -0.7922     0.0083 O.3     
  10 C10            0.3527    -2.6818    -0.0096 C.ar    
  11 C11           -0.9161    -2.1362     0.1040 C.ar    
  12 C12           -2.0016    -2.9813     0.3177 C.ar    
  13 C13           -1.7691    -4.3425     0.4090 C.ar    
  14 C14           -0.4700    -4.8170     0.2852 C.ar    
  15 N15            0.5375    -3.9848     0.0831 N.ar    
  16 O16           -0.2315    -6.1505     0.3733 O.3     
  17 C17            1.1256    -6.5772     0.2379 C.3     
  18 C18            1.7919    -6.6028     1.6149 C.3     
  19 C19            1.1607    -7.9800    -0.3719 C.3     
  20 O20           -6.5092     4.0158    -0.0246 O.3     
  21 H21           -5.5306    -0.9803    -0.2097 H       
  22 H22            1.1994    -2.0333    -0.1799 H       
  23 H23           -3.0015    -2.5840     0.4104 H       
  24 H24           -2.5877    -5.0271     0.5747 H       
  25 H25            1.6609    -5.8850    -0.4120 H       
  26 H26            1.2565    -7.2950     2.2648 H       
  27 H27            2.8270    -6.9283     1.5117 H       
  28 H28            1.7669    -5.6034     2.0493 H       
  29 H29            0.6860    -7.9618    -1.3529 H       
  30 H30            2.1958    -8.3055    -0.4751 H       
  31 H31            0.6253    -8.6722     0.2780 H       
  32 H32           -6.2494     4.9456     0.0305 H       
@<TRIPOS>BOND
   1    1    2 1
   2    1    5 1
   3    2    3 2
   4    2    9 1
   5    3    4 1
   6    4    5 2
   7    4   21 1
   8    5    6 1
   9    6    7 1
  10    6    8 2
  11    8   20 1
  12    9   11 1
  13   10   11 ar
  14   10   15 ar
  15   10   22 1
  16   11   12 ar
  17   12   13 ar
  18   12   23 1
  19   13   14 ar
  20   13   24 1
  21   14   15 ar
  22   14   16 1
  23   16   17 1
  24   17   18 1
  25   17   19 1
  26   17   25 1
  27   18   26 1
  28   18   27 1
  29   18   28 1
  30   19   29 1
  31   19   30 1
  32   19   31 1
  33   20   32 1

#	End of record

