#	Name: ASD01948119
#	Creating user name:	WinNT
#	Creation time:	15. 06. 2019 20:13

#	Modifying user name:	WinNT
#	Modification time:	15. 06. 2019 20:13

#	Program:	/corina/corina34_cracker 3.40 0067  02.08.2006

@<TRIPOS>MOLECULE
ASD01948119
  47   50    0    0    0
SMALL
NO_CHARGES


@<TRIPOS>ATOM
   1 C1             1.8001     1.4192    -1.0469 C.ar    
   2 C2             1.5982     0.0461    -1.1437 C.ar    
   3 C3             1.7714    -0.5930    -2.3636 C.ar    
   4 C4             2.1435     0.1353    -3.4774 C.ar    
   5 C5             2.3436     1.4996    -3.3788 C.ar    
   6 C6             2.1672     2.1422    -2.1666 C.ar    
   7 N7             1.2220    -0.6887    -0.0143 N.pl3   
   8 C8             3.6313    -2.2829    -0.4412 C.2     
   9 C9             2.3514    -2.8725    -0.2921 C.2     
  10 C10            1.1514    -2.0658    -0.0788 C.2     
  11 C11            6.0300    -2.5396    -0.7997 C.3     
  12 N12            4.6876    -3.1041    -0.6402 N.am    
  13 F13            1.6323     2.0459     0.1382 F       
  14 C14            2.2372    -4.2688    -0.3510 C.2     
  15 N15            1.0105    -4.8541    -0.2088 N.am    
  16 C16           -0.0986    -4.1216    -0.0132 C.2     
  17 C17           -0.0595    -2.7264     0.0572 C.2     
  18 C18            4.5102    -4.4450    -0.6928 C.2     
  19 N19            3.3401    -5.0045    -0.5463 N.2     
  20 O20            3.7752    -1.0739    -0.3964 O.2     
  21 C21            0.9022    -6.3138    -0.2724 C.3     
  22 O22           -1.1711    -4.6911     0.1077 O.2     
  23 C23            6.6914    -2.4276     0.5498 C.ar    
  24 C24            7.4432    -3.4788     1.0403 C.ar    
  25 C25            8.0499    -3.3762     2.2782 C.ar    
  26 C26            7.9052    -2.2221     3.0252 C.ar    
  27 C27            7.1541    -1.1706     2.5343 C.ar    
  28 C28            6.5510    -1.2716     1.2945 C.ar    
  29 N29            2.7421     2.2757    -4.5747 N.pl3   
  30 O30            2.8933     1.7121    -5.6438 O.2     
  31 O31            2.9188     3.4778    -4.4895 O.2     
  32 H32            1.6159    -1.6589    -2.4421 H       
  33 H33            2.2786    -0.3621    -4.4264 H       
  34 H34            2.3240     3.2082    -2.0932 H       
  35 H35            1.0107    -0.2306     0.8142 H       
  36 H36            6.6235    -3.1897    -1.4425 H       
  37 H37            5.9568    -1.5504    -1.2516 H       
  38 H38           -0.9686    -2.1655     0.2160 H       
  39 H39            5.3714    -5.0768    -0.8529 H       
  40 H40            1.0195    -6.7307     0.7278 H       
  41 H41           -0.0754    -6.5886    -0.6684 H       
  42 H42            1.6821    -6.7078    -0.9240 H       
  43 H43            7.5563    -4.3805     0.4566 H       
  44 H44            8.6367    -4.1977     2.6617 H       
  45 H45            8.3786    -2.1422     3.9927 H       
  46 H46            7.0408    -0.2691     3.1181 H       
  47 H47            5.9643    -0.4500     0.9109 H       
@<TRIPOS>BOND
   1    1    2 ar
   2    1   13 1
   3    1    6 ar
   4    2    3 ar
   5    2    7 1
   6    3    4 ar
   7    3   32 1
   8    4    5 ar
   9    4   33 1
  10    5    6 ar
  11    5   29 1
  12    6   34 1
  13    7   10 1
  14    7   35 1
  15    8    9 1
  16    8   20 2
  17    8   12 am
  18    9   10 1
  19    9   14 2
  20   10   17 2
  21   11   12 1
  22   11   23 1
  23   11   36 1
  24   11   37 1
  25   12   18 1
  26   14   15 1
  27   14   19 1
  28   15   16 am
  29   15   21 1
  30   16   17 1
  31   16   22 2
  32   17   38 1
  33   18   19 2
  34   18   39 1
  35   21   40 1
  36   21   41 1
  37   21   42 1
  38   23   24 ar
  39   23   28 ar
  40   24   25 ar
  41   24   43 1
  42   25   26 ar
  43   25   44 1
  44   26   27 ar
  45   26   45 1
  46   27   28 ar
  47   27   46 1
  48   28   47 1
  49   29   30 2
  50   29   31 2

#	End of record

