#	Name: ASD01900127
#	Creating user name:	WinNT
#	Creation time:	15. 06. 2019 19:51

#	Modifying user name:	WinNT
#	Modification time:	15. 06. 2019 19:51

#	Program:	/corina/corina34_cracker 3.40 0067  02.08.2006

@<TRIPOS>MOLECULE
ASD01900127
  39   42    0    0    0
SMALL
NO_CHARGES


@<TRIPOS>ATOM
   1 N1            -0.0189     1.3106     0.0360 N.ar    
   2 C2             0.0863     0.0004     0.0743 C.ar    
   3 C3            -0.7595    -0.8038    -0.6733 C.ar    
   4 C4            -1.7283    -0.2149    -1.4703 C.ar    
   5 C5            -1.8165     1.1684    -1.4908 C.ar    
   6 C6            -0.9329     1.9142    -0.7142 C.ar    
   7 C7            -1.0144     3.3932    -0.7246 C.2     
   8 N8            -0.1622     4.1203     0.0248 N.am    
   9 O9            -1.8497     3.9510    -1.4089 O.2     
  10 C10           -0.1739     5.5173    -0.0589 C.ar    
  11 C11           -1.3733     6.1917    -0.2469 C.ar    
  12 C12           -1.3846     7.5707    -0.3290 C.ar    
  13 C13           -0.1958     8.2823    -0.2234 C.ar    
  14 C14            1.0030     7.6074    -0.0355 C.ar    
  15 C15            1.0135     6.2298     0.0518 C.ar    
  16 Cl16          -2.8834     8.4143    -0.5645 Cl      
  17 N17           -0.2067     9.6823    -0.3072 N.am    
  18 C18           -0.0763    10.3778    -1.4514 C.2     
  19 C19           -0.1369    11.8151    -1.1364 C.ar    
  20 C20           -0.3103    11.8974     0.2620 C.ar    
  21 C21           -0.3546    10.5070     0.7454 C.2     
  22 S22            0.1269     9.7045    -3.0123 S.2     
  23 S23           -0.5504    10.0215     2.3754 S.2     
  24 C24           -0.0615    12.9781    -1.8912 C.ar    
  25 C25           -0.1572    14.2086    -1.2661 C.ar    
  26 C26           -0.3272    14.2894     0.1053 C.ar    
  27 C27           -0.4044    13.1408     0.8728 C.ar    
  28 H28            0.8423    -0.4553     0.6965 H       
  29 H29           -0.6644    -1.8789    -0.6353 H       
  30 H30           -2.3991    -0.8199    -2.0624 H       
  31 H31           -2.5595     1.6608    -2.1006 H       
  32 H32            0.4592     3.6754     0.6221 H       
  33 H33           -2.2970     5.6381    -0.3292 H       
  34 H34            1.9269     8.1606     0.0465 H       
  35 H35            1.9462     5.7052     0.1980 H       
  36 H36            0.0715    12.9224    -2.9615 H       
  37 H37           -0.0983    15.1135    -1.8527 H       
  38 H38           -0.4000    15.2567     0.5801 H       
  39 H39           -0.5375    13.2111     1.9423 H       
@<TRIPOS>BOND
   1    1    2 ar
   2    1    6 ar
   3    2    3 ar
   4    2   28 1
   5    3    4 ar
   6    3   29 1
   7    4    5 ar
   8    4   30 1
   9    5    6 ar
  10    5   31 1
  11    6    7 1
  12    7    8 am
  13    7    9 2
  14    8   10 1
  15    8   32 1
  16   10   11 ar
  17   10   15 ar
  18   11   12 ar
  19   11   33 1
  20   12   13 ar
  21   12   16 1
  22   13   14 ar
  23   13   17 1
  24   14   15 ar
  25   14   34 1
  26   15   35 1
  27   17   18 am
  28   17   21 am
  29   18   19 1
  30   18   22 2
  31   19   20 ar
  32   19   24 ar
  33   20   21 1
  34   20   27 ar
  35   21   23 2
  36   24   25 ar
  37   24   36 1
  38   25   26 ar
  39   25   37 1
  40   26   27 ar
  41   26   38 1
  42   27   39 1

#	End of record

