#	Name: ASD03331267
#	Creating user name:	WinNT
#	Creation time:	15. 06. 2019 20:38

#	Modifying user name:	WinNT
#	Modification time:	15. 06. 2019 20:38

#	Program:	/corina/corina34_cracker 3.40 0067  02.08.2006

@<TRIPOS>MOLECULE
ASD03331267
  47   50    0    0    0
SMALL
NO_CHARGES


@<TRIPOS>ATOM
   1 N1            -0.0478     1.4495     0.2459 N.am    
   2 C2            -0.0338     0.0026     0.5090 C.3     
   3 C3             0.7257    -0.6914    -0.6267 C.3     
   4 N4             2.0505    -0.0741    -0.7743 N.3     
   5 C5             1.9399     1.3387    -1.1613 C.3     
   6 C6             1.2302     2.1159    -0.0475 C.3     
   7 C7            -1.2018     2.1454     0.2675 C.2     
   8 O8            -2.2597     1.5640     0.4125 O.2     
   9 N9            -1.1831     3.4859     0.1284 N.am    
  10 C10           -2.3804     4.1935     0.0333 C.ar    
  11 N11           -2.3875     5.5008     0.2398 N.ar    
  12 C12           -3.4985     6.2080     0.1596 C.ar    
  13 C13           -4.7020     5.6037    -0.1445 C.ar    
  14 C14           -4.7374     4.2338    -0.3682 C.ar    
  15 C15           -3.5551     3.5203    -0.2830 C.ar    
  16 C16            2.8748    -0.8200    -1.7346 C.3     
  17 C17            4.1208    -0.0316    -2.0459 C.ar    
  18 C18            5.2687    -0.2100    -1.2775 C.ar    
  19 N19            6.3708     0.4583    -1.5181 N.ar    
  20 C20            6.4422     1.3442    -2.5163 C.ar    
  21 C21            5.3103     1.5739    -3.3375 C.ar    
  22 C22            4.1272     0.8547    -3.0855 C.ar    
  23 C23            7.6265     2.0584    -2.7694 C.ar    
  24 C24            7.6690     2.9543    -3.7928 C.ar    
  25 C25            6.5546     3.1788    -4.5989 C.ar    
  26 C26            5.3906     2.5061    -4.3848 C.ar    
  27 H27            0.4672    -0.1923     1.4572 H       
  28 H28           -1.0565    -0.3724     0.5482 H       
  29 H29            0.8416    -1.7498    -0.3932 H       
  30 H30            0.1680    -0.5827    -1.5569 H       
  31 H31            2.9364     1.7526    -1.3156 H       
  32 H32            1.3653     1.4192    -2.0840 H       
  33 H33            1.0431     3.1381    -0.3763 H       
  34 H34            1.8527     2.1241     0.8472 H       
  35 H35           -0.3366     3.9582     0.0944 H       
  36 H36           -3.4661     7.2732     0.3345 H       
  37 H37           -5.6066     6.1903    -0.2073 H       
  38 H38           -5.6661     3.7371    -0.6073 H       
  39 H39           -3.5456     2.4542    -0.4553 H       
  40 H40            3.1518    -1.7826    -1.3050 H       
  41 H41            2.3081    -0.9810    -2.6518 H       
  42 H42            5.2504    -0.9173    -0.4615 H       
  43 H43            3.2464     1.0050    -3.6922 H       
  44 H44            8.4990     1.8969    -2.1538 H       
  45 H45            8.5811     3.5004    -3.9831 H       
  46 H46            6.6152     3.8961    -5.4041 H       
  47 H47            4.5338     2.6884    -5.0165 H       
@<TRIPOS>BOND
   1    1    2 1
   2    1    6 1
   3    1    7 am
   4    2    3 1
   5    2   27 1
   6    2   28 1
   7    3    4 1
   8    3   29 1
   9    3   30 1
  10    4    5 1
  11    4   16 1
  12    5    6 1
  13    5   31 1
  14    5   32 1
  15    6   33 1
  16    6   34 1
  17    7    8 2
  18    7    9 am
  19    9   10 1
  20    9   35 1
  21   10   11 ar
  22   10   15 ar
  23   11   12 ar
  24   12   13 ar
  25   12   36 1
  26   13   14 ar
  27   13   37 1
  28   14   15 ar
  29   14   38 1
  30   15   39 1
  31   16   17 1
  32   16   40 1
  33   16   41 1
  34   17   18 ar
  35   17   22 ar
  36   18   19 ar
  37   18   42 1
  38   19   20 ar
  39   20   21 ar
  40   20   23 ar
  41   21   22 ar
  42   21   26 ar
  43   22   43 1
  44   23   24 ar
  45   23   44 1
  46   24   25 ar
  47   24   45 1
  48   25   26 ar
  49   25   46 1
  50   26   47 1

#	End of record

