#	Name: ASD01001057
#	Creating user name:	WinNT
#	Creation time:	15. 06. 2019 18:55

#	Modifying user name:	WinNT
#	Modification time:	15. 06. 2019 18:55

#	Program:	/corina/corina34_cracker 3.40 0067  02.08.2006

@<TRIPOS>MOLECULE
ASD01001057
  42   44    0    0    0
SMALL
NO_CHARGES


@<TRIPOS>ATOM
   1 C1            -0.0664     1.7753     0.3117 C.ar    
   2 C2            -0.1646     0.4596     0.7280 C.ar    
   3 C3             1.1751     2.3324     0.0695 C.ar    
   4 C4             0.9801    -0.2978     0.9015 C.ar    
   5 C5             2.3185     1.5751     0.2430 C.ar    
   6 C6             2.2210     0.2604     0.6589 C.ar    
   7 C7             3.6718     2.1830    -0.0218 C.3     
   8 C8             4.7425     1.1508     0.2219 C.ar    
   9 C9             3.7412     2.6506    -1.4527 C.ar    
  10 C10            3.8802     3.3282     0.8793 C.1     
  11 C11            5.6187     1.3005     1.2805 C.ar    
  12 C12            4.8448     0.0514    -0.6099 C.ar    
  13 C13            2.7137     2.3521    -2.3280 C.ar    
  14 C14            4.8297     3.3828    -1.8886 C.ar    
  15 C15            4.0463     4.2415     1.5979 C.1     
  16 C16            6.5973     0.3508     1.5074 C.ar    
  17 C17            5.8269    -0.8954    -0.3864 C.ar    
  18 C18            2.7747     2.7859    -3.6391 C.ar    
  19 C19            4.8933     3.8117    -3.2012 C.ar    
  20 C20            4.2547     5.3867     2.4990 C.3     
  21 C21            6.6992    -0.7488     0.6759 C.ar    
  22 C22            3.8630     3.5185    -4.0748 C.ar    
  23 N23            5.5739     5.9792     2.2409 N.3     
  24 H24            3.4803     6.1333     2.3228 H       
  25 Cl25          -1.7236    -0.2406     1.0330 Cl      
  26 H26           -0.9599     2.3657     0.1718 H       
  27 H27            1.2518     3.3594    -0.2558 H       
  28 H28            0.9041    -1.3248     1.2268 H       
  29 H29            3.1147    -0.3306     0.7947 H       
  30 H30            5.5391     2.1596     1.9301 H       
  31 H31            4.1571    -0.0680    -1.4341 H       
  32 H32            1.8635     1.7797    -1.9875 H       
  33 H33            5.6302     3.6201    -1.2035 H       
  34 H34            7.2823     0.4681     2.3340 H       
  35 H35            5.9066    -1.7545    -1.0360 H       
  36 H36            1.9723     2.5521    -4.3231 H       
  37 H37            5.7436     4.3840    -3.5416 H       
  38 H38            4.2045     5.0485     3.5340 H       
  39 H39            7.4640    -1.4906     0.8529 H       
  40 H40            3.9127     3.8535    -5.1003 H       
  41 H41            5.7409     6.7680     2.8475 H       
  42 H42            6.3046     5.2898     2.3348 H       
@<TRIPOS>BOND
   1    1    2 ar
   2    1    3 ar
   3    1   26 1
   4    2    4 ar
   5    2   25 1
   6    3    5 ar
   7    3   27 1
   8    4    6 ar
   9    4   28 1
  10    5    6 ar
  11    5    7 1
  12    6   29 1
  13    7   10 1
  14    7    8 1
  15    7    9 1
  16    8   12 ar
  17    8   11 ar
  18    9   14 ar
  19    9   13 ar
  20   10   15 3
  21   11   16 ar
  22   11   30 1
  23   12   17 ar
  24   12   31 1
  25   13   18 ar
  26   13   32 1
  27   14   19 ar
  28   14   33 1
  29   15   20 1
  30   16   21 ar
  31   16   34 1
  32   17   21 ar
  33   17   35 1
  34   18   22 ar
  35   18   36 1
  36   19   22 ar
  37   19   37 1
  38   20   23 1
  39   20   24 1
  40   20   38 1
  41   21   39 1
  42   22   40 1
  43   23   41 1
  44   23   42 1

#	End of record

