#	Name: ASD03240548
#	Creating user name:	WinNT
#	Creation time:	15. 06. 2019 20:35

#	Modifying user name:	WinNT
#	Modification time:	15. 06. 2019 20:35

#	Program:	/corina/corina34_cracker 3.40 0067  02.08.2006

@<TRIPOS>MOLECULE
ASD03240548
  62   68    0    0    0
SMALL
NO_CHARGES


@<TRIPOS>ATOM
   1 C1            -0.0166     1.3754     0.0096 C.ar    
   2 C2             0.0021    -0.0041     0.0020 C.ar    
   3 N3             1.1422    -0.6683    -0.0058 N.ar    
   4 C4             2.3145    -0.0481    -0.0057 C.ar    
   5 C5             2.3702     1.3442    -0.0124 C.ar    
   6 C6             1.1861     2.0698     0.0018 C.ar    
   7 N7             3.4821    -0.8058     0.0220 N.pl3   
   8 C8             4.3590    -0.7195     1.0999 C.ar    
   9 C9             4.9951     0.4888     1.4041 C.ar    
  10 C10            4.7641     1.6833     0.5625 C.2     
  11 N11            3.5939     2.0276    -0.0512 N.pl3   
  12 C12            4.6046    -1.8393     1.8833 C.ar    
  13 C13            5.4644    -1.7542     2.9617 C.ar    
  14 C14            6.0851    -0.5562     3.2709 C.ar    
  15 C15            5.8557     0.5649     2.4990 C.ar    
  16 N16            5.6759     2.5939     0.2857 N.2     
  17 C17            5.1465     3.5397    -0.5053 C.2     
  18 C18            3.8230     3.2043    -0.7374 C.2     
  19 C19            2.8511     3.9550    -1.5552 C.ar    
  20 C20            2.7527     5.3432    -1.4304 C.ar    
  21 C21            2.0288     3.2818    -2.4623 C.ar    
  22 C22            1.1230     3.9902    -3.2238 C.ar    
  23 C23            1.0274     5.3643    -3.0911 C.ar    
  24 C24            1.8423     6.0384    -2.1985 C.ar    
  25 C25            5.8512     4.7300    -1.0352 C.ar    
  26 C26            0.0351     6.1311    -3.9267 C.3     
  27 N27           -1.0440     5.2838    -4.4517 N.3     
  28 C28           -0.4655     7.4224    -3.2583 C.3     
  29 C29           -0.3776     8.0811    -4.6451 C.3     
  30 C30            0.6889     7.0266    -4.9924 C.3     
  31 C31            6.8207     5.3696    -0.2623 C.ar    
  32 C32            7.4750     6.4771    -0.7578 C.ar    
  33 C33            7.1693     6.9570    -2.0262 C.ar    
  34 C34            6.2037     6.3215    -2.7984 C.ar    
  35 C35            5.5508     5.2099    -2.3102 C.ar    
  36 N36            7.8330     8.0796    -2.5253 N.pl3   
  37 H37           -0.9556     1.9091     0.0170 H       
  38 H38           -0.9306    -0.5486     0.0028 H       
  39 H39            1.2002     3.1497     0.0064 H       
  40 H40            3.6865    -1.4000    -0.7169 H       
  41 H41            4.1235    -2.7775     1.6495 H       
  42 H42            5.6531    -2.6281     3.5676 H       
  43 H43            6.7514    -0.4985     4.1189 H       
  44 H44            6.3411     1.4985     2.7423 H       
  45 H45            3.3878     5.8704    -0.7340 H       
  46 H46            2.1026     2.2095    -2.5671 H       
  47 H47            0.4869     3.4712    -3.9256 H       
  48 H48            1.7622     7.1109    -2.1001 H       
  49 H49           -0.6713     4.4616    -4.9025 H       
  50 H50           -1.6940     5.0327    -3.7219 H       
  51 H51           -1.4827     7.3489    -2.8735 H       
  52 H52            0.2337     7.8378    -2.5325 H       
  53 H53           -1.2910     7.9862    -5.2323 H       
  54 H54            0.0069     9.1008    -4.6206 H       
  55 H55            1.7042     7.3332    -4.7409 H       
  56 H56            0.6025     6.6356    -6.0062 H       
  57 H57            7.0581     4.9976     0.7234 H       
  58 H58            8.2256     6.9726    -0.1599 H       
  59 H59            5.9680     6.6963    -3.7835 H       
  60 H60            4.8007     4.7166    -2.9105 H       
  61 H61            8.5067     8.5239    -1.9871 H       
  62 H62            7.6204     8.4152    -3.4102 H       
@<TRIPOS>BOND
   1    1    2 ar
   2    1    6 ar
   3    1   37 1
   4    2    3 ar
   5    2   38 1
   6    3    4 ar
   7    4    5 ar
   8    4    7 1
   9    5    6 ar
  10    5   11 1
  11    6   39 1
  12    7    8 1
  13    7   40 1
  14    8    9 ar
  15    8   12 ar
  16    9   10 1
  17    9   15 ar
  18   10   11 1
  19   10   16 2
  20   11   18 1
  21   12   13 ar
  22   12   41 1
  23   13   14 ar
  24   13   42 1
  25   14   15 ar
  26   14   43 1
  27   15   44 1
  28   16   17 1
  29   17   18 2
  30   17   25 1
  31   18   19 1
  32   19   20 ar
  33   19   21 ar
  34   20   24 ar
  35   20   45 1
  36   21   22 ar
  37   21   46 1
  38   22   23 ar
  39   22   47 1
  40   23   24 ar
  41   23   26 1
  42   24   48 1
  43   25   31 ar
  44   25   35 ar
  45   26   27 1
  46   26   28 1
  47   26   30 1
  48   27   49 1
  49   27   50 1
  50   28   29 1
  51   28   51 1
  52   28   52 1
  53   29   30 1
  54   29   53 1
  55   29   54 1
  56   30   55 1
  57   30   56 1
  58   31   32 ar
  59   31   57 1
  60   32   33 ar
  61   32   58 1
  62   33   34 ar
  63   33   36 1
  64   34   35 ar
  65   34   59 1
  66   35   60 1
  67   36   61 1
  68   36   62 1

#	End of record

