#	Name: ASD01940392
#	Creating user name:	WinNT
#	Creation time:	15. 06. 2019 20:12

#	Modifying user name:	WinNT
#	Modification time:	15. 06. 2019 20:12

#	Program:	/corina/corina34_cracker 3.40 0067  02.08.2006

@<TRIPOS>MOLECULE
ASD01940392
  42   43    0    0    0
SMALL
NO_CHARGES


@<TRIPOS>ATOM
   1 C1            -0.8577     1.2528    -0.5940 C.ar    
   2 C2            -1.0327    -0.1248    -0.5088 C.ar    
   3 C3            -0.6210    -0.9373    -1.5487 C.ar    
   4 C4            -0.0354    -0.3811    -2.6723 C.ar    
   5 C5             0.1394     0.9880    -2.7589 C.ar    
   6 C6            -0.2702     1.8060    -1.7234 C.ar    
   7 N7            -1.2783     2.0793     0.4538 N.pl3   
   8 C8            -3.7339     3.8987     0.1249 C.2     
   9 N9            -4.6932     4.8333    -0.0257 N.am    
  10 O10           -6.0556     4.4496    -0.0649 O.3     
  11 C11           -6.9626     5.5416    -0.2286 C.3     
  12 C12           -8.3979     5.0126    -0.2572 C.3     
  13 O13           -8.7201     4.4406     1.0121 O.3     
  14 O14           -4.0385     2.7252     0.2273 O.2     
  15 F15           -1.6037    -0.6676     0.5887 F       
  16 I16            0.5885    -1.6160    -4.2455 I       
  17 C17           -1.2225     3.4440     0.3164 C.2     
  18 C18           -1.8189     5.6080     0.0601 C.2     
  19 C19           -2.3206     4.2968     0.1656 C.2     
  20 N20           -0.0993     4.1913     0.3096 N.pl3   
  21 C21           -0.4445     5.5258     0.1510 C.2     
  22 C22            1.2653     3.6767     0.4480 C.3     
  23 C23            0.4537     6.6101     0.0924 C.2     
  24 C24           -0.0688     8.0126    -0.0838 C.3     
  25 O25            1.6493     6.4142     0.1839 O.2     
  26 H26           -0.7562    -2.0069    -1.4840 H       
  27 H27            0.5972     1.4185    -3.6373 H       
  28 H28           -0.1333     2.8750    -1.7927 H       
  29 H29           -1.6093     1.6879     1.2773 H       
  30 H30           -4.4503     5.7689    -0.1073 H       
  31 H31           -6.8481     6.2368     0.6030 H       
  32 H32           -6.7463     6.0563    -1.1648 H       
  33 H33           -9.0833     5.8329    -0.4706 H       
  34 H34           -8.4894     4.2518    -1.0323 H       
  35 H35           -9.6174     4.0842     1.0665 H       
  36 H36           -2.4007     6.5091    -0.0664 H       
  37 H37            1.7022     3.5351    -0.5405 H       
  38 H38            1.8668     4.3892     1.0125 H       
  39 H39            1.2422     2.7228     0.9750 H       
  40 H40           -1.1568     7.9899    -0.1463 H       
  41 H41            0.2336     8.6226     0.7674 H       
  42 H42            0.3389     8.4398    -1.0000 H       
@<TRIPOS>BOND
   1    1    2 ar
   2    1    6 ar
   3    1    7 1
   4    2    3 ar
   5    2   15 1
   6    3    4 ar
   7    3   26 1
   8    4    5 ar
   9    4   16 1
  10    5    6 ar
  11    5   27 1
  12    6   28 1
  13    7   17 1
  14    7   29 1
  15    8    9 am
  16    8   14 2
  17    8   19 1
  18    9   10 1
  19    9   30 1
  20   10   11 1
  21   11   12 1
  22   11   31 1
  23   11   32 1
  24   12   13 1
  25   12   33 1
  26   12   34 1
  27   13   35 1
  28   17   20 1
  29   17   19 2
  30   18   19 1
  31   18   21 2
  32   18   36 1
  33   20   21 1
  34   20   22 1
  35   21   23 1
  36   22   37 1
  37   22   38 1
  38   22   39 1
  39   23   24 1
  40   23   25 2
  41   24   40 1
  42   24   41 1
  43   24   42 1

#	End of record

