#	Name: ASD04640009
#	Creating user name:	WinNT
#	Creation time:	15. 06. 2019 20:52

#	Modifying user name:	WinNT
#	Modification time:	15. 06. 2019 20:52

#	Program:	/corina/corina34_cracker 3.40 0067  02.08.2006

@<TRIPOS>MOLECULE
ASD04640009
  63   67    0    0    0
SMALL
NO_CHARGES


@<TRIPOS>ATOM
   1 C1            -0.0180     1.4730     0.0101 C.ar    
   2 C2             0.0021    -0.0041     0.0020 C.2     
   3 O3            -1.0424    -0.6262     0.0086 O.2     
   4 N4             1.1783    -0.6620    -0.0127 N.am    
   5 C5             1.1981    -2.1268    -0.0208 C.3     
   6 C6             2.6473    -2.6171    -0.0373 C.3     
   7 C7             2.6681    -4.1470    -0.0457 C.3     
   8 C8             4.1173    -4.6373    -0.0622 C.3     
   9 N9             4.1372    -6.1061    -0.0702 N.3     
  10 C10            5.4930    -6.6130    -0.3242 C.3     
  11 C11            3.1855    -6.6403    -1.0543 C.3     
  12 C12            3.1787    -8.1688    -0.9759 C.3     
  13 N13            4.5345    -8.6757    -1.2298 N.3     
  14 C14            5.4863    -8.1415    -0.2458 C.3     
  15 C15            4.5535   -10.0731    -1.2375 C.ar    
  16 C16            4.1626   -10.7806    -0.1080 C.ar    
  17 C17            4.9579   -10.7577    -2.3771 C.ar    
  18 C18            4.9748   -12.1408    -2.3809 C.ar    
  19 C19            4.5895   -12.8413    -1.2513 C.ar    
  20 C20            4.1818   -12.1617    -0.1182 C.ar    
  21 Cl21           5.4406    -9.8785    -3.7941 Cl      
  22 Cl22           5.4791   -12.9984    -3.8035 Cl      
  23 C23            1.1811     2.1903     0.0025 C.ar    
  24 C24            1.1625     3.5657     0.0106 C.ar    
  25 C25           -0.0559     4.2517     0.0265 C.ar    
  26 C26           -1.2503     3.5329     0.0335 C.ar    
  27 C27           -1.2360     2.1574     0.0196 C.ar    
  28 C28           -0.3549     5.7045     0.0383 C.ar    
  29 C29           -1.7346     5.8948     0.0525 C.ar    
  30 C30           -2.3818     4.5316     0.0503 C.3     
  31 C31            0.4895     6.8167     0.0371 C.ar    
  32 C32           -0.0460     8.0879     0.0499 C.ar    
  33 C33           -1.4174     8.2665     0.0640 C.ar    
  34 C34           -2.2605     7.1688     0.0662 C.ar    
  35 H35            2.0116    -0.1656    -0.0180 H       
  36 H36            0.6978    -2.5019     0.8720 H       
  37 H37            0.6808    -2.4923    -0.9079 H       
  38 H38            3.1477    -2.2421    -0.9301 H       
  39 H39            3.1647    -2.2516     0.8498 H       
  40 H40            2.1677    -4.5220     0.8471 H       
  41 H41            2.1508    -4.5125    -0.9327 H       
  42 H42            4.6176    -4.2622    -0.9550 H       
  43 H43            4.6346    -4.2718     0.8249 H       
  44 H44            5.8178    -6.3013    -1.3168 H       
  45 H45            6.1768    -6.2135     0.4248 H       
  46 H46            2.1869    -6.2607    -0.8377 H       
  47 H47            3.4841    -6.3288    -2.0553 H       
  48 H48            2.8539    -8.4806     0.0167 H       
  49 H49            2.4949    -8.5683    -1.7248 H       
  50 H50            6.4848    -8.5212    -0.4624 H       
  51 H51            5.1877    -8.4530     0.7552 H       
  52 H52            3.8443   -10.2512     0.7779 H       
  53 H53            4.6034   -13.9212    -1.2562 H       
  54 H54            3.8821   -12.7115     0.7617 H       
  55 H55            2.1241     1.6640    -0.0093 H       
  56 H56            2.0911     4.1170     0.0051 H       
  57 H57           -2.1653     1.6071     0.0252 H       
  58 H58           -3.0014     4.4118    -0.8384 H       
  59 H59           -2.9845     4.4009     0.9491 H       
  60 H60            1.5610     6.6817     0.0265 H       
  61 H61            0.6083     8.9472     0.0494 H       
  62 H62           -1.8311     9.2641     0.0740 H       
  63 H63           -3.3311     7.3107     0.0771 H       
@<TRIPOS>BOND
   1    1    2 1
   2    1   23 ar
   3    1   27 ar
   4    2    3 2
   5    2    4 am
   6    4    5 1
   7    4   35 1
   8    5    6 1
   9    5   36 1
  10    5   37 1
  11    6    7 1
  12    6   38 1
  13    6   39 1
  14    7    8 1
  15    7   40 1
  16    7   41 1
  17    8    9 1
  18    8   42 1
  19    8   43 1
  20    9   10 1
  21    9   11 1
  22   10   14 1
  23   10   44 1
  24   10   45 1
  25   11   12 1
  26   11   46 1
  27   11   47 1
  28   12   13 1
  29   12   48 1
  30   12   49 1
  31   13   14 1
  32   13   15 1
  33   14   50 1
  34   14   51 1
  35   15   16 ar
  36   15   17 ar
  37   16   20 ar
  38   16   52 1
  39   17   18 ar
  40   17   21 1
  41   18   19 ar
  42   18   22 1
  43   19   20 ar
  44   19   53 1
  45   20   54 1
  46   23   24 ar
  47   23   55 1
  48   24   25 ar
  49   24   56 1
  50   25   26 ar
  51   25   28 1
  52   26   27 ar
  53   26   30 1
  54   27   57 1
  55   28   29 ar
  56   28   31 ar
  57   29   30 1
  58   29   34 ar
  59   30   58 1
  60   30   59 1
  61   31   32 ar
  62   31   60 1
  63   32   33 ar
  64   32   61 1
  65   33   34 ar
  66   33   62 1
  67   34   63 1

#	End of record

