#	Name: ASD03092429
#	Creating user name:	WinNT
#	Creation time:	15. 06. 2019 20:32

#	Modifying user name:	WinNT
#	Modification time:	15. 06. 2019 20:32

#	Program:	/corina/corina34_cracker 3.40 0067  02.08.2006

@<TRIPOS>MOLECULE
ASD03092429
  64   67    0    0    0
SMALL
NO_CHARGES


@<TRIPOS>ATOM
   1 O1             0.8906     1.0032    -0.3454 O.3     
   2 N2             0.7499    -0.1961    -0.2858 N.2     
   3 C3             1.9051    -0.8120    -0.2408 C.2     
   4 C4             2.8976     0.2064    -0.2811 C.2     
   5 C5             2.1840     1.3541    -0.3481 C.2     
   6 C6             2.1324    -2.2757    -0.1634 C.2     
   7 O7             3.2652    -2.7135    -0.1273 O.2     
   8 N8             1.0824    -3.1201    -0.1332 N.am    
   9 C9             2.7363     2.7548    -0.4135 C.3     
  10 C10            2.2665     3.4285    -1.7043 C.3     
  11 C11            2.2379     3.5563     0.7907 C.3     
  12 C12            1.3069    -4.5658    -0.0568 C.3     
  13 S13           -2.1410    -6.4560     0.6760 S.3     
  14 C14           -1.8185    -6.1980    -0.9828 C.2     
  15 N15           -0.6847    -5.5812    -1.1308 N.2     
  16 C16           -0.0200    -5.2799    -0.0365 C.2     
  17 C17           -0.6269    -5.6643     1.1058 C.2     
  18 C18            0.3988    -6.2705     4.6673 C.ar    
  19 C19           -0.0903    -6.5081     3.4011 C.ar    
  20 C20           -0.1132    -5.4576     2.4739 C.ar    
  21 C21            0.3658    -4.2055     2.8819 C.ar    
  22 C22            0.8368    -4.0577     4.1685 C.ar    
  23 N23            0.8407    -5.0746     5.0104 N.ar    
  24 C24            1.3549    -2.7167     4.6207 C.3     
  25 C25            0.4235    -7.3894     5.6765 C.3     
  26 N26           -2.6461    -6.5903    -2.0191 N.3     
  27 C27           -3.8490    -7.2626    -1.5071 C.3     
  28 C28           -4.7056    -7.7319    -2.6861 C.3     
  29 O29           -5.0235    -6.6100    -3.5142 O.3     
  30 C30           -3.8751    -5.9319    -4.0306 C.3     
  31 C31           -3.0100    -5.4444    -2.8652 C.3     
  32 C32           -4.3237    -4.7339    -4.8699 C.3     
  33 C33           -5.9974    -8.3612    -2.1605 C.3     
  34 H34            3.9712     0.0905    -0.2620 H       
  35 H35            0.1780    -2.7706    -0.1620 H       
  36 H36            3.8255     2.7168    -0.3990 H       
  37 H37            1.1772     3.4664    -1.7188 H       
  38 H38            2.6660     4.4415    -1.7517 H       
  39 H39            2.6216     2.8574    -2.5622 H       
  40 H40            1.1486     3.5942     0.7763 H       
  41 H41            2.5726     3.0763     1.7103 H       
  42 H42            2.6374     4.5693     0.7434 H       
  43 H43            1.8811    -4.8907    -0.9244 H       
  44 H44            1.8595    -4.8001     0.8531 H       
  45 H45           -0.4499    -7.4890     3.1274 H       
  46 H46            0.3663    -3.3693     2.1984 H       
  47 H47            0.5365    -2.1354     5.0453 H       
  48 H48            2.1276    -2.8615     5.3757 H       
  49 H49            1.7753    -2.1834     3.7681 H       
  50 H50            1.3717    -7.9222     5.6051 H       
  51 H51            0.3131    -6.9768     6.6793 H       
  52 H52           -0.3966    -8.0786     5.4749 H       
  53 H53           -3.5567    -8.1227    -0.9046 H       
  54 H54           -4.4224    -6.5665    -0.8949 H       
  55 H55           -4.1517    -8.4685    -3.2680 H       
  56 H56           -3.2970    -6.6162    -4.6516 H       
  57 H57           -3.5700    -4.7193    -2.2748 H       
  58 H58           -2.1053    -4.9772    -3.2541 H       
  59 H59           -4.8999    -4.0495    -4.2473 H       
  60 H60           -3.4480    -4.2175    -5.2632 H       
  61 H61           -4.9426    -5.0812    -5.6971 H       
  62 H62           -6.5513    -7.6231    -1.5804 H       
  63 H63           -6.6068    -8.6950    -3.0003 H       
  64 H64           -5.7544    -9.2137    -1.5263 H       
@<TRIPOS>BOND
   1    1    2 1
   2    1    5 1
   3    2    3 2
   4    3    4 1
   5    3    6 1
   6    4    5 2
   7    4   34 1
   8    5    9 1
   9    6    7 2
  10    6    8 am
  11    8   12 1
  12    8   35 1
  13    9   10 1
  14    9   11 1
  15    9   36 1
  16   10   37 1
  17   10   38 1
  18   10   39 1
  19   11   40 1
  20   11   41 1
  21   11   42 1
  22   12   16 1
  23   12   43 1
  24   12   44 1
  25   13   14 1
  26   13   17 1
  27   14   15 2
  28   14   26 1
  29   15   16 1
  30   16   17 2
  31   17   20 1
  32   18   19 ar
  33   18   23 ar
  34   18   25 1
  35   19   20 ar
  36   19   45 1
  37   20   21 ar
  38   21   22 ar
  39   21   46 1
  40   22   23 ar
  41   22   24 1
  42   24   47 1
  43   24   48 1
  44   24   49 1
  45   25   50 1
  46   25   51 1
  47   25   52 1
  48   26   27 1
  49   26   31 1
  50   27   28 1
  51   27   53 1
  52   27   54 1
  53   28   29 1
  54   28   33 1
  55   28   55 1
  56   29   30 1
  57   30   31 1
  58   30   32 1
  59   30   56 1
  60   31   57 1
  61   31   58 1
  62   32   59 1
  63   32   60 1
  64   32   61 1
  65   33   62 1
  66   33   63 1
  67   33   64 1

#	End of record

