#	Name: ASD01815944
#	Creating user name:	WinNT
#	Creation time:	15. 06. 2019 19:34

#	Modifying user name:	WinNT
#	Modification time:	15. 06. 2019 19:34

#	Program:	/corina/corina34_cracker 3.40 0067  02.08.2006

@<TRIPOS>MOLECULE
ASD01815944
  50   55    0    0    0
SMALL
NO_CHARGES


@<TRIPOS>ATOM
   1 C1             1.1840     2.2596    -0.5287 C.ar    
   2 C2             0.8007     0.9285    -0.5123 C.ar    
   3 C3             1.7393    -0.0725    -0.3553 C.ar    
   4 C4             3.0861     0.2502    -0.2118 C.ar    
   5 C5             3.4719     1.6003    -0.2293 C.ar    
   6 C6             2.5157     2.6012    -0.3880 C.ar    
   7 N7             4.0321    -0.7490    -0.0535 N.pl3   
   8 C8             5.3431    -0.4983     0.0895 C.2     
   9 C9             5.8374     0.7826     0.0880 C.2     
  10 C10            4.9037     1.9201    -0.0758 C.2     
  11 C11            7.1584     1.3899     0.2160 C.2     
  12 N12            6.9690     2.7243     0.1310 N.am    
  13 N13            5.6128     3.0118    -0.0430 N.2     
  14 C14            7.9870     3.6834     0.2062 C.ar    
  15 O15            8.2204     0.8087     0.3695 O.2     
  16 C16            3.5814    -2.1429    -0.0411 C.3     
  17 C17            3.4352    -2.6362    -1.4576 C.ar    
  18 C18            4.5172    -2.5904    -2.3207 C.ar    
  19 C19            4.3845    -3.0429    -3.6215 C.ar    
  20 C20            3.1662    -3.5429    -4.0594 C.ar    
  21 C21            2.0839    -3.5875    -3.1905 C.ar    
  22 C22            2.2226    -3.1391    -1.8916 C.ar    
  23 F23            2.8886     3.8996    -0.4046 F       
  24 F24            1.3501    -1.3661    -0.3404 F       
  25 C25            8.7038     4.0281    -0.9319 C.ar    
  26 C26            9.7072     4.9742    -0.8547 C.ar    
  27 C27            9.9992     5.5789     0.3543 C.ar    
  28 C28            9.2884     5.2393     1.4906 C.ar    
  29 C29            8.2785     4.2969     1.4198 C.ar    
  30 F30            7.5838     3.9649     2.5300 F       
  31 F31            5.7024    -2.1034    -1.8927 F       
  32 N32            3.0283    -4.0018    -5.3769 N.pl3   
  33 C33            1.9166    -4.5108    -5.9428 C.2     
  34 N34            2.1986    -4.8205    -7.1825 N.2     
  35 C35            3.4718    -4.5261    -7.4439 C.2     
  36 N36            4.0197    -4.0168    -6.3716 N.2     
  37 H37            0.4405     3.0324    -0.6563 H       
  38 H38           -0.2423     0.6710    -0.6230 H       
  39 H39            6.0268    -1.3257     0.2092 H       
  40 H40            4.3134    -2.7568     0.4836 H       
  41 H41            2.6198    -2.2094     0.4678 H       
  42 H42            5.2278    -3.0068    -4.2953 H       
  43 H43            1.1348    -3.9759    -3.5294 H       
  44 H44            1.3805    -3.1740    -1.2163 H       
  45 H45            8.4772     3.5565    -1.8767 H       
  46 H46           10.2649     5.2420    -1.7400 H       
  47 H47           10.7846     6.3180     0.4111 H       
  48 H48            9.5192     5.7131     2.4332 H       
  49 H49            0.9603    -4.6407    -5.4581 H       
  50 H50            3.9693    -4.6793    -8.3901 H       
@<TRIPOS>BOND
   1    1    2 ar
   2    1    6 ar
   3    1   37 1
   4    2    3 ar
   5    2   38 1
   6    3    4 ar
   7    3   24 1
   8    4    5 ar
   9    4    7 1
  10    5    6 ar
  11    5   10 1
  12    6   23 1
  13    7    8 1
  14    7   16 1
  15    8    9 2
  16    8   39 1
  17    9   10 1
  18    9   11 1
  19   10   13 2
  20   11   12 am
  21   11   15 2
  22   12   13 1
  23   12   14 1
  24   14   25 ar
  25   14   29 ar
  26   16   17 1
  27   16   40 1
  28   16   41 1
  29   17   18 ar
  30   17   22 ar
  31   18   19 ar
  32   18   31 1
  33   19   20 ar
  34   19   42 1
  35   20   21 ar
  36   20   32 1
  37   21   22 ar
  38   21   43 1
  39   22   44 1
  40   25   26 ar
  41   25   45 1
  42   26   27 ar
  43   26   46 1
  44   27   28 ar
  45   27   47 1
  46   28   29 ar
  47   28   48 1
  48   29   30 1
  49   32   33 1
  50   32   36 1
  51   33   34 2
  52   33   49 1
  53   34   35 1
  54   35   36 2
  55   35   50 1

#	End of record

