#	Name: ASD01410879
#	Creating user name:	WinNT
#	Creation time:	15. 06. 2019 19:18

#	Modifying user name:	WinNT
#	Modification time:	15. 06. 2019 19:18

#	Program:	/corina/corina34_cracker 3.40 0067  02.08.2006

@<TRIPOS>MOLECULE
ASD01410879
  72   75    0    0    0
SMALL
NO_CHARGES


@<TRIPOS>ATOM
   1 C1            -2.5933     3.5150     0.5083 C.ar    
   2 C2            -2.2494     1.1597     0.1776 C.ar    
   3 C3            -3.6149     0.9391     0.2923 C.ar    
   4 C4            -4.4779     2.0199     0.5296 C.ar    
   5 C5            -3.9557     3.3116     0.6307 C.ar    
   6 O6            -2.0837     4.7713     0.6122 O.3     
   7 C7            -1.7167     5.4062    -0.5292 C.ar    
   8 N8            -4.1261    -0.3533     0.1835 N.am    
   9 C9            -4.1818    -1.1496     1.2695 C.2     
  10 C10           -3.7708    -0.6154     2.6174 C.3     
  11 O11           -4.5627    -2.2960     1.1620 O.2     
  12 C12           -4.6670    -1.2197     3.7003 C.3     
  13 C13           -1.8964    -0.4497     4.2610 C.3     
  14 C14           -2.7926    -1.0539     5.3439 C.3     
  15 C15           -4.2497    -0.6773     5.0688 C.3     
  16 C16           -2.3753    -0.5116     6.7124 C.3     
  17 N17           -1.8013     4.7727    -1.6875 N.ar    
  18 C18           -1.2612     6.7171    -0.4711 C.ar    
  19 C19           -0.8903     7.3536    -1.6430 C.ar    
  20 C20           -0.9888     6.6527    -2.8368 C.ar    
  21 C21           -1.4553     5.3530    -2.8207 C.ar    
  22 C22           -2.3137    -0.9920     2.8926 C.3     
  23 C23           -1.7426     2.4389     0.2852 C.ar    
  24 C24           -4.6028    -0.8459    -1.1112 C.3     
  25 C25           -3.4478    -1.5150    -1.8590 C.3     
  26 O26           -3.0274    -2.6782    -1.1434 O.3     
  27 C27           -2.0016    -3.3940    -1.6769 C.ar    
  28 C28           -1.5435    -4.5344    -1.0338 C.ar    
  29 C29           -1.4172    -2.9870    -2.8670 C.ar    
  30 C30           -0.3752    -3.7141    -3.4089 C.ar    
  31 C31            0.0869    -4.8510    -2.7627 C.ar    
  32 C32           -0.5016    -5.2614    -1.5757 C.ar    
  33 O33            1.1121    -5.5672    -3.2966 O.3     
  34 C34            1.5368    -6.7269    -2.5776 C.3     
  35 C35           -5.9295     1.7958     0.6524 C.2     
  36 O36           -6.3819     0.6729     0.5482 O.2     
  37 O37           -6.7549     2.8363     0.8803 O.3     
  38 C38           -1.1725     7.4369     0.8499 C.3     
  39 F39           -0.6890     8.7333     0.6430 F       
  40 F40           -2.4428     7.5004     1.4326 F       
  41 F41           -0.3034     6.7452     1.7004 F       
  42 H42           -1.5829     0.3297    -0.0050 H       
  43 H43           -4.6146     4.1496     0.8044 H       
  44 H44           -3.8733     0.4698     2.6248 H       
  45 H45           -5.7051    -0.9514     3.5043 H       
  46 H46           -4.5645    -2.3048     3.6929 H       
  47 H47           -1.9989     0.6355     4.2684 H       
  48 H48           -0.8583    -0.7179     4.4570 H       
  49 H49           -2.6901    -2.1391     5.3365 H       
  50 H50           -4.3522     0.4078     5.0762 H       
  51 H51           -4.8882    -1.1078     5.8403 H       
  52 H52           -2.4777     0.5735     6.7198 H       
  53 H53           -3.0137    -0.9421     7.4839 H       
  54 H54           -1.3372    -0.7799     6.9084 H       
  55 H55           -0.5328     8.3726    -1.6287 H       
  56 H56           -0.7079     7.1202    -3.7690 H       
  57 H57           -1.5335     4.8030    -3.7469 H       
  58 H58           -2.2112    -2.0771     2.8851 H       
  59 H59           -1.6752    -0.5615     2.1211 H       
  60 H60           -0.6792     2.6046     0.1951 H       
  61 H61           -5.4013    -1.5708    -0.9525 H       
  62 H62           -4.9819    -0.0109    -1.7004 H       
  63 H63           -3.7790    -1.8022    -2.8569 H       
  64 H64           -2.6144    -0.8170    -1.9396 H       
  65 H65           -2.0013    -4.8536    -0.1092 H       
  66 H66           -1.7770    -2.1017    -3.3703 H       
  67 H67            0.0794    -3.3975    -4.3360 H       
  68 H68           -0.1415    -6.1465    -1.0722 H       
  69 H69            0.7049    -7.4259    -2.4914 H       
  70 H70            2.3587    -7.2043    -3.1111 H       
  71 H71            1.8708    -6.4350    -1.5820 H       
  72 H72           -7.6990     2.6400     0.9533 H       
@<TRIPOS>BOND
   1    1   23 ar
   2    1    6 1
   3    1    5 ar
   4    2    3 ar
   5    2   23 ar
   6    2   42 1
   7    3    4 ar
   8    3    8 1
   9    4    5 ar
  10    4   35 1
  11    5   43 1
  12    6    7 1
  13    7   18 ar
  14    7   17 ar
  15    8    9 am
  16    8   24 1
  17    9   11 2
  18    9   10 1
  19   10   12 1
  20   10   22 1
  21   10   44 1
  22   12   15 1
  23   12   45 1
  24   12   46 1
  25   13   14 1
  26   13   22 1
  27   13   47 1
  28   13   48 1
  29   14   15 1
  30   14   16 1
  31   14   49 1
  32   15   50 1
  33   15   51 1
  34   16   52 1
  35   16   53 1
  36   16   54 1
  37   17   21 ar
  38   18   19 ar
  39   18   38 1
  40   19   20 ar
  41   19   55 1
  42   20   21 ar
  43   20   56 1
  44   21   57 1
  45   22   58 1
  46   22   59 1
  47   23   60 1
  48   24   25 1
  49   24   61 1
  50   24   62 1
  51   25   26 1
  52   25   63 1
  53   25   64 1
  54   26   27 1
  55   27   28 ar
  56   27   29 ar
  57   28   32 ar
  58   28   65 1
  59   29   30 ar
  60   29   66 1
  61   30   31 ar
  62   30   67 1
  63   31   32 ar
  64   31   33 1
  65   32   68 1
  66   33   34 1
  67   34   69 1
  68   34   70 1
  69   34   71 1
  70   35   36 2
  71   35   37 1
  72   37   72 1
  73   38   39 1
  74   38   40 1
  75   38   41 1

#	End of record

