#	Name: ASD03091679
#	Creating user name:	WinNT
#	Creation time:	15. 06. 2019 20:31

#	Modifying user name:	WinNT
#	Modification time:	15. 06. 2019 20:31

#	Program:	/corina/corina34_cracker 3.40 0067  02.08.2006

@<TRIPOS>MOLECULE
ASD03091679
  54   58    0    0    0
SMALL
NO_CHARGES


@<TRIPOS>ATOM
   1 C1            -0.0170     1.3990     0.0097 C.ar    
   2 C2            -1.2302     2.0682     0.0306 C.ar    
   3 C3            -2.4113     1.3476     0.0434 C.ar    
   4 C4            -2.3921    -0.0379     0.0355 C.ar    
   5 C5            -1.1921    -0.7189     0.0148 C.ar    
   6 C6             0.0021    -0.0041     0.0020 C.ar    
   7 O7             1.1634     2.0662     0.0020 O.3     
   8 C8             2.2625     1.4579     0.6803 C.3     
   9 N9             2.4083     0.0563     0.2863 N.am    
  10 C10            1.3145    -0.6822    -0.0142 C.2     
  11 C11           -3.6890    -0.8053     0.0500 C.3     
  12 C12           -4.2048    -0.9467    -1.3589 C.ar    
  13 C13           -5.0424     0.0123    -1.8953 C.ar    
  14 C14           -3.8390    -2.0384    -2.1333 C.ar    
  15 C15           -4.3356    -2.1295    -3.4225 C.ar    
  16 C16           -5.1780    -1.1310    -3.8943 C.ar    
  17 N17           -5.4994    -0.1018    -3.1270 N.ar    
  18 O18            1.4088    -1.8632    -0.2876 O.2     
  19 C19            3.7407    -0.5489     0.2168 C.3     
  20 C20            4.0068    -1.0789    -1.2073 C.3     
  21 O21            4.7851    -0.1406    -1.9528 O.3     
  22 F22           -1.2596     3.4188     0.0388 F       
  23 C23           -3.7303     2.0760     0.0668 C.3     
  24 C24            3.8180    -1.7628     1.1592 C.3     
  25 C25            4.1284    -2.9882     0.2749 C.3     
  26 C26            4.8043    -2.3875    -0.9827 C.3     
  27 N27           -5.6864    -1.2109    -5.1944 N.pl3   
  28 C28           -6.5119    -0.3098    -5.7878 C.2     
  29 C29           -6.7691    -0.7530    -7.0398 C.2     
  30 C30           -6.0828    -1.9593    -7.2204 C.2     
  31 N31           -5.4306    -2.2313    -6.1195 N.2     
  32 H32           -1.1796    -1.7988     0.0090 H       
  33 H33            3.1777     1.9963     0.4343 H       
  34 H34            2.0941     1.5120     1.7559 H       
  35 H35           -3.5212    -1.7943     0.4764 H       
  36 H36           -4.4217    -0.2691     0.6531 H       
  37 H37           -5.3268     0.8661    -1.2981 H       
  38 H38           -3.1817    -2.7995    -1.7395 H       
  39 H39           -4.0711    -2.9656    -4.0530 H       
  40 H40            4.4986     0.1851     0.4906 H       
  41 H41            3.0670    -1.2856    -1.7192 H       
  42 H42            5.0310    -0.4474    -2.8362 H       
  43 H43           -4.0632     2.2577    -0.9551 H       
  44 H44           -4.4712     1.4696     0.5879 H       
  45 H45           -3.6107     3.0277     0.5846 H       
  46 H46            4.6140    -1.6183     1.8897 H       
  47 H47            2.8642    -1.9017     1.6682 H       
  48 H48            4.8109    -3.6658     0.7879 H       
  49 H49            3.2082    -3.5054     0.0032 H       
  50 H50            4.6964    -3.0569    -1.8361 H       
  51 H51            5.8552    -2.1713    -0.7904 H       
  52 H52           -6.8939     0.5961    -5.3409 H       
  53 H53           -7.3940    -0.2622    -7.7713 H       
  54 H54           -6.0873    -2.5607    -8.1174 H       
@<TRIPOS>BOND
   1    1    6 ar
   2    1    7 1
   3    1    2 ar
   4    2    3 ar
   5    2   22 1
   6    3    4 ar
   7    3   23 1
   8    4    5 ar
   9    4   11 1
  10    5    6 ar
  11    5   32 1
  12    6   10 1
  13    7    8 1
  14    8    9 1
  15    8   33 1
  16    8   34 1
  17    9   10 am
  18    9   19 1
  19   10   18 2
  20   11   12 1
  21   11   35 1
  22   11   36 1
  23   12   14 ar
  24   12   13 ar
  25   13   17 ar
  26   13   37 1
  27   14   15 ar
  28   14   38 1
  29   15   16 ar
  30   15   39 1
  31   16   27 1
  32   16   17 ar
  33   19   24 1
  34   19   20 1
  35   19   40 1
  36   20   21 1
  37   20   26 1
  38   20   41 1
  39   21   42 1
  40   23   43 1
  41   23   44 1
  42   23   45 1
  43   24   25 1
  44   24   46 1
  45   24   47 1
  46   25   26 1
  47   25   48 1
  48   25   49 1
  49   26   50 1
  50   26   51 1
  51   27   31 1
  52   27   28 1
  53   28   29 2
  54   28   52 1
  55   29   30 1
  56   29   53 1
  57   30   31 2
  58   30   54 1

#	End of record

