#	Name: ASD01911175
#	Creating user name:	WinNT
#	Creation time:	15. 06. 2019 19:57

#	Modifying user name:	WinNT
#	Modification time:	15. 06. 2019 19:57

#	Program:	/corina/corina34_cracker 3.40 0067  02.08.2006

@<TRIPOS>MOLECULE
ASD01911175
  43   47    0    0    0
SMALL
NO_CHARGES


@<TRIPOS>ATOM
   1 C1             0.5876     1.0253     0.2951 C.ar    
   2 C2             0.8151    -0.3387     0.3905 C.ar    
   3 C3             2.1054    -0.8328     0.4312 C.ar    
   4 C4             3.1898     0.0289     0.3768 C.ar    
   5 C5             2.9776     1.3949     0.2808 C.ar    
   6 C6             1.6619     1.8987     0.2397 C.ar    
   7 C7             3.8650     2.5745     0.2038 C.2     
   8 N8             3.1026     3.6799     0.1235 N.am    
   9 C9             1.7942     3.3674     0.1387 C.2     
  10 C10            3.6280     5.0444     0.0318 C.3     
  11 C11            3.9553     5.3612    -1.4047 C.ar    
  12 C12            2.9542     5.7857    -2.2683 C.ar    
  13 C13            3.2593     6.0768    -3.5917 C.ar    
  14 C14            4.5566     5.9435    -4.0453 C.ar    
  15 C15            5.5526     5.5202    -3.1824 C.ar    
  16 C16            5.2525     5.2350    -1.8622 C.ar    
  17 N17            1.6404     5.9195    -1.8062 N.am    
  18 C18            0.6136     5.8984    -2.6790 C.2     
  19 C19           -0.7583     6.1551    -2.2085 C.2     
  20 O20            0.8756     4.1595     0.0790 O.2     
  21 O21            5.0792     2.5498     0.2117 O.2     
  22 O22            0.8200     5.6673    -3.8553 O.2     
  23 Cl23           7.1826     5.3531    -3.7561 Cl      
  24 C24           -1.8809     6.1642    -2.9776 C.2     
  25 N25           -2.9487     6.4439    -2.1474 N.pl3   
  26 C26           -2.4259     6.5945    -0.8967 C.2     
  27 N27           -1.1286     6.4187    -0.9301 N.2     
  28 C28           -4.3137     6.6009    -2.2399 C.2     
  29 C29           -4.9973     6.8775    -1.1442 C.2     
  30 S30           -3.8001     6.9526     0.1606 S.3     
  31 H31           -0.4227     1.4054     0.2595 H       
  32 H32           -0.0217    -1.0201     0.4337 H       
  33 H33            2.2698    -1.8975     0.5064 H       
  34 H34            4.1958    -0.3626     0.4093 H       
  35 H35            2.8794     5.7473     0.3974 H       
  36 H36            4.5307     5.1276     0.6370 H       
  37 H37            2.4824     6.4068    -4.2655 H       
  38 H38            4.7943     6.1693    -5.0743 H       
  39 H39            6.0315     4.9048    -1.1910 H       
  40 H40            1.4685     6.0274    -0.8577 H       
  41 H41           -1.9282     5.9856    -4.0417 H       
  42 H42           -4.8159     6.5000    -3.1907 H       
  43 H43           -6.0636     7.0272    -1.0607 H       
@<TRIPOS>BOND
   1    1    2 ar
   2    1    6 ar
   3    1   31 1
   4    2    3 ar
   5    2   32 1
   6    3    4 ar
   7    3   33 1
   8    4    5 ar
   9    4   34 1
  10    5    6 ar
  11    5    7 1
  12    6    9 1
  13    7    8 am
  14    7   21 2
  15    8    9 am
  16    8   10 1
  17    9   20 2
  18   10   11 1
  19   10   35 1
  20   10   36 1
  21   11   12 ar
  22   11   16 ar
  23   12   13 ar
  24   12   17 1
  25   13   14 ar
  26   13   37 1
  27   14   15 ar
  28   14   38 1
  29   15   16 ar
  30   15   23 1
  31   16   39 1
  32   17   18 am
  33   17   40 1
  34   18   19 1
  35   18   22 2
  36   19   24 2
  37   19   27 1
  38   24   25 1
  39   24   41 1
  40   25   26 1
  41   25   28 1
  42   26   27 2
  43   26   30 1
  44   28   29 2
  45   28   42 1
  46   29   30 1
  47   29   43 1

#	End of record

