#	Name: ASD00111094
#	Creating user name:	WinNT
#	Creation time:	15. 06. 2019 18:30

#	Modifying user name:	WinNT
#	Modification time:	15. 06. 2019 18:30

#	Program:	/corina/corina34_cracker 3.40 0067  02.08.2006

@<TRIPOS>MOLECULE
ASD00111094
  39   40    0    0    0
SMALL
NO_CHARGES


@<TRIPOS>ATOM
   1 N1             1.1692     1.6578     0.3237 N.am    
   2 C2             0.6672     0.3211     0.0208 C.3     
   3 C3             0.6302    -0.5204     1.3012 C.3     
   4 C4             2.0211    -1.0484     1.5740 C.ar    
   5 C5             3.0167    -0.1966     1.9857 C.ar    
   6 C6             2.7316     1.2773     2.1700 C.3     
   7 C7             2.5288     1.9136     0.7892 C.3     
   8 C8             4.2885    -0.6791     2.2362 C.ar    
   9 C9             4.5567    -2.0303     2.0698 C.ar    
  10 C10            3.5493    -2.8894     1.6533 C.ar    
  11 C11            2.2810    -2.3976     1.4061 C.ar    
  12 O12            5.8041    -2.5117     2.3139 O.3     
  13 C13            6.7912    -1.5700     2.7391 C.3     
  14 C14            0.1720     0.3491     2.4738 C.3     
  15 C15           -1.3526     0.2897     2.5876 C.3     
  16 Br16           3.9111    -4.7313     1.4246 Br      
  17 C17            0.3391     2.7069     0.1605 C.2     
  18 O18           -0.7952     2.5277    -0.2297 O.2     
  19 C19            0.8203     4.1027     0.4627 C.3     
  20 F20           -0.2121     5.0149     0.2190 F       
  21 F21            1.2059     4.1826     1.8051 F       
  22 F22            1.9137     4.4064    -0.3555 F       
  23 H23           -0.3385     0.3966    -0.3926 H       
  24 H24            1.3229    -0.1559    -0.7077 H       
  25 H25           -0.0587    -1.3549     1.1706 H       
  26 H26            1.8284     1.4032     2.7672 H       
  27 H27            3.5741     1.7528     2.6721 H       
  28 H28            3.2403     1.4844     0.0838 H       
  29 H29            2.6919     2.9891     0.8584 H       
  30 H30            5.0696    -0.0070     2.5596 H       
  31 H31            1.4954    -3.0641     1.0820 H       
  32 H32            6.9172    -0.8049     1.9731 H       
  33 H33            6.4702    -1.1026     3.6701 H       
  34 H34            7.7390    -2.0841     2.8986 H       
  35 H35            0.6199    -0.0199     3.3965 H       
  36 H36            0.4839     1.3799     2.3055 H       
  37 H37           -1.6790     0.9091     3.4230 H       
  38 H38           -1.8004     0.6587     1.6650 H       
  39 H39           -1.6645    -0.7410     2.7560 H       
@<TRIPOS>BOND
   1    1    2 1
   2    1    7 1
   3    1   17 am
   4    2    3 1
   5    2   23 1
   6    2   24 1
   7    3    4 1
   8    3   14 1
   9    3   25 1
  10    4    5 ar
  11    4   11 ar
  12    5    6 1
  13    5    8 ar
  14    6    7 1
  15    6   26 1
  16    6   27 1
  17    7   28 1
  18    7   29 1
  19    8    9 ar
  20    8   30 1
  21    9   10 ar
  22    9   12 1
  23   10   11 ar
  24   10   16 1
  25   11   31 1
  26   12   13 1
  27   13   32 1
  28   13   33 1
  29   13   34 1
  30   14   15 1
  31   14   35 1
  32   14   36 1
  33   15   37 1
  34   15   38 1
  35   15   39 1
  36   17   18 2
  37   17   19 1
  38   19   20 1
  39   19   21 1
  40   19   22 1

#	End of record

