#	Name: ASD03330191
#	Creating user name:	WinNT
#	Creation time:	15. 06. 2019 20:36

#	Modifying user name:	WinNT
#	Modification time:	15. 06. 2019 20:36

#	Program:	/corina/corina34_cracker 3.40 0067  02.08.2006

@<TRIPOS>MOLECULE
ASD03330191
  58   61    0    0    0
SMALL
NO_CHARGES


@<TRIPOS>ATOM
   1 C1             0.6954     0.2670     3.2586 C.ar    
   2 C2             0.4423    -0.6063     2.2170 C.ar    
   3 C3             1.4695    -1.0078     1.3852 C.ar    
   4 C4             2.7572    -0.5332     1.5960 C.ar    
   5 C5             3.0082     0.3440     2.6432 C.ar    
   6 C6             1.9770     0.7414     3.4712 C.ar    
   7 N7             3.8001    -0.9383     0.7554 N.am    
   8 C8             4.9245    -0.2000     0.6728 C.2     
   9 N9             5.9729    -0.6470    -0.0466 N.am    
  10 O10            4.9932     0.8694     1.2474 O.2     
  11 C11            7.1756     0.0687    -0.0496 C.ar    
  12 C12            8.3854    -0.6084    -0.0572 C.ar    
  13 C13            9.5797     0.1081    -0.0601 C.ar    
  14 C14            9.5520     1.5015    -0.0554 C.ar    
  15 C15            8.3429     2.1683    -0.0478 C.ar    
  16 C16            7.1575     1.4582    -0.0507 C.ar    
  17 C17           10.8778    -0.6100    -0.0678 C.ar    
  18 N18           10.8947    -1.9377    -0.0718 N.ar    
  19 C19           12.0657     0.1142    -0.0764 C.ar    
  20 C20           13.2737    -0.5664    -0.0840 C.ar    
  21 C21           13.2544    -1.9503    -0.0827 C.ar    
  22 C22           12.0311    -2.6146    -0.0791 C.ar    
  23 N23           12.0034    -4.0043    -0.0773 N.3     
  24 C24           10.6167    -4.5051    -0.0736 C.3     
  25 C25           10.4585    -5.4222    -1.3046 C.3     
  26 C26           11.9190    -5.8407    -1.6186 C.3     
  27 C27           12.6977    -4.5496    -1.2632 C.3     
  28 C28            1.1928    -1.9601     0.2505 C.3     
  29 C29            0.7658    -3.3163     0.8155 C.3     
  30 C30            0.0722    -1.3972    -0.6260 C.3     
  31 H31           -0.1102     0.5829     3.9048 H       
  32 H32           -0.5595    -0.9754     2.0538 H       
  33 H33            4.0088     0.7145     2.8099 H       
  34 H34            2.1715     1.4235     4.2856 H       
  35 H35            3.7136    -1.7505     0.2322 H       
  36 H36            5.8938    -1.4647    -0.5623 H       
  37 H37            8.4016    -1.6883    -0.0605 H       
  38 H38           10.4765     2.0599    -0.0573 H       
  39 H39            8.3237     3.2482    -0.0441 H       
  40 H40            6.2145     1.9845    -0.0451 H       
  41 H41           12.0471     1.1940    -0.0776 H       
  42 H42           14.2099    -0.0280    -0.0912 H       
  43 H43           14.1787    -2.5089    -0.0888 H       
  44 H44           10.4298    -5.0727     0.8381 H       
  45 H45            9.9203    -3.6694    -0.1419 H       
  46 H46            9.8519    -6.2942    -1.0601 H       
  47 H47           10.0265    -4.8732    -2.1413 H       
  48 H48           12.2316    -6.6717    -0.9863 H       
  49 H49           12.0358    -6.0892    -2.6735 H       
  50 H50           12.6526    -3.8397    -2.0891 H       
  51 H51           13.7339    -4.7858    -1.0210 H       
  52 H52            2.0952    -2.0837    -0.3483 H       
  53 H53           -0.1365    -3.1927     1.4143 H       
  54 H54            0.5657    -4.0051    -0.0052 H       
  55 H55            1.5642    -3.7174     1.4400 H       
  56 H56            0.3764    -0.4310    -1.0286 H       
  57 H57           -0.1279    -2.0860    -1.4468 H       
  58 H58           -0.8301    -1.2735    -0.0273 H       
@<TRIPOS>BOND
   1    1    2 ar
   2    1    6 ar
   3    1   31 1
   4    2    3 ar
   5    2   32 1
   6    3    4 ar
   7    3   28 1
   8    4    5 ar
   9    4    7 1
  10    5    6 ar
  11    5   33 1
  12    6   34 1
  13    7    8 am
  14    7   35 1
  15    8    9 am
  16    8   10 2
  17    9   11 1
  18    9   36 1
  19   11   12 ar
  20   11   16 ar
  21   12   13 ar
  22   12   37 1
  23   13   14 ar
  24   13   17 1
  25   14   15 ar
  26   14   38 1
  27   15   16 ar
  28   15   39 1
  29   16   40 1
  30   17   18 ar
  31   17   19 ar
  32   18   22 ar
  33   19   20 ar
  34   19   41 1
  35   20   21 ar
  36   20   42 1
  37   21   22 ar
  38   21   43 1
  39   22   23 1
  40   23   24 1
  41   23   27 1
  42   24   25 1
  43   24   44 1
  44   24   45 1
  45   25   26 1
  46   25   46 1
  47   25   47 1
  48   26   27 1
  49   26   48 1
  50   26   49 1
  51   27   50 1
  52   27   51 1
  53   28   29 1
  54   28   30 1
  55   28   52 1
  56   29   53 1
  57   29   54 1
  58   29   55 1
  59   30   56 1
  60   30   57 1
  61   30   58 1

#	End of record

