#	Name: ASD09116180
#	Creating user name:	WinNT
#	Creation time:	15. 06. 2019 21:21

#	Modifying user name:	WinNT
#	Modification time:	15. 06. 2019 21:21

#	Program:	/corina/corina34_cracker 3.40 0067  02.08.2006

@<TRIPOS>MOLECULE
ASD09116180
  71   77    0    0    0
SMALL
NO_CHARGES


@<TRIPOS>ATOM
   1 N1            -0.0116     1.4644    -0.0560 N.2     
   2 C2            -0.0109     0.0063     0.1579 C.3     
   3 C3             1.2188     1.8634     0.1202 C.2     
   4 N4             2.0573     0.8529     0.4284 N.2     
   5 C5             1.4393    -0.2982     0.4793 C.2     
   6 N6             1.6191     3.1791     0.0032 N.pl3   
   7 C7             2.9777     3.5092     0.0979 C.ar    
   8 C8             3.9538     2.6069    -0.3213 C.ar    
   9 C9             3.3674     4.7400     0.6043 C.ar    
  10 N10            4.6446     5.0582     0.6956 N.ar    
  11 C11            5.5983     4.2244     0.3119 C.ar    
  12 C12            5.2824     2.9747    -0.2100 C.ar    
  13 N13            1.9828    -1.5128     0.7611 N.pl3   
  14 C14           -0.9008    -0.3612     1.3173 C.ar    
  15 C15           -1.6705     0.6173     1.9124 C.ar    
  16 N16           -0.9297    -1.6189     1.7381 N.ar    
  17 C17           -1.6864    -1.9696     2.7358 C.ar    
  18 C18           -2.4955    -1.0425     3.4032 C.ar    
  19 C19           -2.5007     0.2811     2.9929 C.ar    
  20 C20           -1.8062    -3.3708     3.3065 C.3     
  21 C21           -1.4548    -3.2550     4.8040 C.3     
  22 C22           -2.3275    -2.1758     5.4486 C.3     
  23 N23           -3.2423    -1.5862     4.4514 N.3     
  24 C24           -4.1259    -2.6444     3.9237 C.3     
  25 C25           -3.3418     1.2982     3.6690 C.ar    
  26 N26            6.9329     4.6048     0.4276 N.3     
  27 C27            7.0483     5.9561     0.9935 C.3     
  28 C28            8.5271     6.3045     1.1780 C.3     
  29 N29            9.2132     6.2195    -0.1188 N.3     
  30 C30            9.0979     4.8682    -0.6848 C.3     
  31 C31            7.6190     4.5198    -0.8692 C.3     
  32 C32           -3.3033    -3.7360     3.2356 C.3     
  33 C33           10.6211     6.6208     0.0032 C.3     
  34 C34           -2.7812     2.5042     4.0864 C.ar    
  35 C35           -3.5689     3.4472     4.7147 C.ar    
  36 C36           -4.9122     3.1975     4.9306 C.ar    
  37 C37           -5.4739     2.0024     4.5185 C.ar    
  38 C38           -4.6971     1.0542     3.8845 C.ar    
  39 H39           -0.3247    -0.5151    -0.7464 H       
  40 H40            0.9600     3.8753    -0.1445 H       
  41 H41            3.6791     1.6428    -0.7232 H       
  42 H42            2.6168     5.4462     0.9273 H       
  43 H43            6.0649     2.2985    -0.5211 H       
  44 H44            2.9308    -1.5874     0.9525 H       
  45 H45            1.4224    -2.3045     0.7706 H       
  46 H46           -1.6341     1.6339     1.5498 H       
  47 H47           -1.1696    -4.0861     2.7858 H       
  48 H48           -1.6367    -4.2109     5.2952 H       
  49 H49           -0.4042    -2.9850     4.9111 H       
  50 H50           -2.9118    -2.6197     6.2546 H       
  51 H51           -1.6883    -1.3932     5.8574 H       
  52 H52           -4.6911    -3.0841     4.7455 H       
  53 H53           -4.8188    -2.2087     3.2040 H       
  54 H54            6.5871     6.6747     0.3160 H       
  55 H55            6.5434     5.9903     1.9590 H       
  56 H56            8.6158     7.3175     1.5706 H       
  57 H57            8.9818     5.6022     1.8767 H       
  58 H58            9.6027     4.8340    -1.6502 H       
  59 H59            9.5590     4.1496    -0.0072 H       
  60 H60            7.5303     3.5068    -1.2619 H       
  61 H61            7.1644     5.2221    -1.5679 H       
  62 H62           -3.6085    -3.8181     2.1925 H       
  63 H63           -3.4694    -4.6883     3.7393 H       
  64 H64           11.1266     5.9626     0.7098 H       
  65 H65           11.1051     6.5486    -0.9708 H       
  66 H66           10.6761     7.6489     0.3609 H       
  67 H67           -1.7325     2.7001     3.9187 H       
  68 H68           -3.1356     4.3819     5.0388 H       
  69 H69           -5.5247     3.9382     5.4230 H       
  70 H70           -6.5232     1.8127     4.6897 H       
  71 H71           -5.1366     0.1215     3.5632 H       
@<TRIPOS>BOND
   1    1    2 1
   2    1    3 2
   3    2   14 1
   4    2    5 1
   5    2   39 1
   6    3    4 1
   7    3    6 1
   8    4    5 2
   9    5   13 1
  10    6    7 1
  11    6   40 1
  12    7    8 ar
  13    7    9 ar
  14    8   12 ar
  15    8   41 1
  16    9   10 ar
  17    9   42 1
  18   10   11 ar
  19   11   12 ar
  20   11   26 1
  21   12   43 1
  22   13   44 1
  23   13   45 1
  24   14   15 ar
  25   14   16 ar
  26   15   19 ar
  27   15   46 1
  28   16   17 ar
  29   17   18 ar
  30   17   20 1
  31   18   19 ar
  32   18   23 1
  33   19   25 1
  34   20   21 1
  35   20   32 1
  36   20   47 1
  37   21   22 1
  38   21   48 1
  39   21   49 1
  40   22   23 1
  41   22   50 1
  42   22   51 1
  43   23   24 1
  44   24   32 1
  45   24   52 1
  46   24   53 1
  47   25   34 ar
  48   25   38 ar
  49   26   27 1
  50   26   31 1
  51   27   28 1
  52   27   54 1
  53   27   55 1
  54   28   29 1
  55   28   56 1
  56   28   57 1
  57   29   30 1
  58   29   33 1
  59   30   31 1
  60   30   58 1
  61   30   59 1
  62   31   60 1
  63   31   61 1
  64   32   62 1
  65   32   63 1
  66   33   64 1
  67   33   65 1
  68   33   66 1
  69   34   35 ar
  70   34   67 1
  71   35   36 ar
  72   35   68 1
  73   36   37 ar
  74   36   69 1
  75   37   38 ar
  76   37   70 1
  77   38   71 1

#	End of record

