#	Name: ASD05130021
#	Creating user name:	WinNT
#	Creation time:	15. 06. 2019 20:56

#	Modifying user name:	WinNT
#	Modification time:	15. 06. 2019 20:56

#	Program:	/corina/corina34_cracker 3.40 0067  02.08.2006

@<TRIPOS>MOLECULE
ASD05130021
  61   64    0    0    0
SMALL
NO_CHARGES


@<TRIPOS>ATOM
   1 N1            -2.2631     1.3317    -0.0687 N.am    
   2 C2            -2.2542    -0.0160    -0.0681 C.2     
   3 O3            -3.3030    -0.6308    -0.0605 O.2     
   4 N4            -1.0826    -0.6822    -0.0760 N.am    
   5 C5            -3.5367     2.0558    -0.0601 C.3     
   6 C6            -0.9993     2.0726    -0.0718 C.3     
   7 N7             1.3006    -4.8560    -0.0828 N.am    
   8 C8             1.2892    -6.1990     0.0262 C.2     
   9 C9             0.0301    -6.9097     0.2625 C.2     
  10 C10           -1.1347    -6.2007     0.3723 C.2     
  11 C11           -1.0962    -4.7906     0.2545 C.ar    
  12 C12           -2.2640    -4.0251     0.3597 C.ar    
  13 N13           -2.2107    -2.7158     0.2473 N.ar    
  14 C14           -1.0703    -2.0695     0.0332 C.ar    
  15 C15            0.1323    -2.7497    -0.0843 C.ar    
  16 C16            0.1335    -4.1360     0.0264 C.ar    
  17 O17            2.3298    -6.8246    -0.0724 O.2     
  18 C18            2.5670    -4.1565    -0.3136 C.3     
  19 C19            2.8112    -4.0270    -1.8184 C.3     
  20 C20            0.0182    -8.3865     0.3814 C.ar    
  21 C21            0.4869    -8.9990     1.5458 C.ar    
  22 C22            0.4747   -10.3769     1.6540 C.ar    
  23 C23           -0.0006   -11.1521     0.6106 C.ar    
  24 C24           -0.4685   -10.5487    -0.5524 C.ar    
  25 C25           -0.4659    -9.1679    -0.6663 C.ar    
  26 N26           -0.9482   -11.3378    -1.6070 N.am    
  27 C27           -1.9771   -10.9022    -2.3607 C.2     
  28 O28           -2.4356    -9.7907    -2.1796 O.2     
  29 N29           -2.4979   -11.6987    -3.3151 N.am    
  30 C30           -3.5016   -11.2132    -4.1607 C.ar    
  31 C31           -3.5515   -11.6211    -5.4871 C.ar    
  32 C32           -4.5434   -11.1400    -6.3192 C.ar    
  33 C33           -5.4859   -10.2527    -5.8328 C.ar    
  34 C34           -5.4389    -9.8446    -4.5124 C.ar    
  35 C35           -4.4533   -10.3268    -3.6736 C.ar    
  36 F36           -0.0098   -12.4985     0.7216 F       
  37 F37            0.9523    -8.2451     2.5657 F       
  38 H38           -0.2481    -0.1946    -0.1577 H       
  39 H39           -3.8453     2.2359     0.9696 H       
  40 H40           -3.4162     3.0088    -0.5752 H       
  41 H41           -4.2960     1.4615    -0.5684 H       
  42 H42           -0.4279     1.8127    -0.9629 H       
  43 H43           -1.2055     3.1429    -0.0718 H       
  44 H44           -0.4240     1.8134     0.8171 H       
  45 H45           -2.0710    -6.7100     0.5461 H       
  46 H46           -3.2123    -4.5117     0.5337 H       
  47 H47            1.0525    -2.2120    -0.2591 H       
  48 H48            2.5203    -3.1636     0.1337 H       
  49 H49            3.3818    -4.7212     0.1395 H       
  50 H50            1.9964    -3.4623    -2.2715 H       
  51 H51            3.7535    -3.5066    -1.9900 H       
  52 H52            2.8579    -5.0199    -2.2657 H       
  53 H53            0.8373   -10.8497     2.5548 H       
  54 H54           -0.8334    -8.6984    -1.5668 H       
  55 H55           -0.5395   -12.1973    -1.7944 H       
  56 H56           -2.1770   -12.6086    -3.4158 H       
  57 H57           -2.8153   -12.3135    -5.8678 H       
  58 H58           -4.5827   -11.4568    -7.3509 H       
  59 H59           -6.2600    -9.8774    -6.4856 H       
  60 H60           -6.1765    -9.1515    -4.1354 H       
  61 H61           -4.4198   -10.0112    -2.6413 H       
@<TRIPOS>BOND
   1    1    2 am
   2    1    5 1
   3    1    6 1
   4    2    3 2
   5    2    4 am
   6    4   14 1
   7    4   38 1
   8    5   39 1
   9    5   40 1
  10    5   41 1
  11    6   42 1
  12    6   43 1
  13    6   44 1
  14    7    8 am
  15    7   16 1
  16    7   18 1
  17    8    9 1
  18    8   17 2
  19    9   10 2
  20    9   20 1
  21   10   11 1
  22   10   45 1
  23   11   12 ar
  24   11   16 ar
  25   12   13 ar
  26   12   46 1
  27   13   14 ar
  28   14   15 ar
  29   15   16 ar
  30   15   47 1
  31   18   19 1
  32   18   48 1
  33   18   49 1
  34   19   50 1
  35   19   51 1
  36   19   52 1
  37   20   21 ar
  38   20   25 ar
  39   21   22 ar
  40   21   37 1
  41   22   23 ar
  42   22   53 1
  43   23   24 ar
  44   23   36 1
  45   24   25 ar
  46   24   26 1
  47   25   54 1
  48   26   27 am
  49   26   55 1
  50   27   28 2
  51   27   29 am
  52   29   30 1
  53   29   56 1
  54   30   31 ar
  55   30   35 ar
  56   31   32 ar
  57   31   57 1
  58   32   33 ar
  59   32   58 1
  60   33   34 ar
  61   33   59 1
  62   34   35 ar
  63   34   60 1
  64   35   61 1

#	End of record

