#	Name: ASD05790054
#	Creating user name:	WinNT
#	Creation time:	15. 06. 2019 21:03

#	Modifying user name:	WinNT
#	Modification time:	15. 06. 2019 21:03

#	Program:	/corina/corina34_cracker 3.40 0067  02.08.2006

@<TRIPOS>MOLECULE
ASD05790054
  42   45    0    0    0
SMALL
NO_CHARGES


@<TRIPOS>ATOM
   1 C1            -0.1753     1.4733    -0.5694 C.2     
   2 C2            -0.1532    -0.0033    -0.5732 C.ar    
   3 C3             0.8991    -0.6880    -1.1879 C.ar    
   4 C4             0.9134    -2.0684    -1.1873 C.ar    
   5 C5            -0.1115    -2.7736    -0.5795 C.ar    
   6 C6            -1.1568    -2.1001     0.0312 C.ar    
   7 C7            -1.1805    -0.7216     0.0422 C.ar    
   8 O8             0.7230     2.0961    -1.1016 O.2     
   9 N9            -1.1942     2.1304     0.0193 N.am    
  10 C10           -1.1619     3.5228     0.1191 C.ar    
  11 C11           -2.3411     4.2528     0.0191 C.ar    
  12 C12           -2.3126     5.6278     0.1177 C.ar    
  13 C13           -1.0962     6.2870     0.3185 C.ar    
  14 C14            0.0854     5.5497     0.4184 C.ar    
  15 C15            0.0487     4.1756     0.3242 C.ar    
  16 O16           -2.1268     8.5754     0.3445 O.3     
  17 C17           -1.0611     7.7598     0.4242 C.2     
  18 N18            0.0149     8.4859     0.6117 N.2     
  19 C19           -0.3457     9.7856     0.6554 C.2     
  20 C20           -1.6909     9.8422     0.4877 C.2     
  21 C21            0.5632    10.9420     0.8520 C.ar    
  22 C22            1.9320    10.7362     1.0127 C.ar    
  23 C23            2.7727    11.8153     1.1953 C.ar    
  24 C24            2.2589    13.0994     1.2189 C.ar    
  25 C25            0.9010    13.3095     1.0598 C.ar    
  26 C26            0.0518    12.2381     0.8709 C.ar    
  27 Cl27          -3.7848     6.5390    -0.0079 Cl      
  28 Cl28          -0.0869    -4.5094    -0.5832 Cl      
  29 Cl29           2.1843     0.1953    -1.9507 Cl      
  30 H30            1.7254    -2.5992    -1.6619 H       
  31 H31           -1.9531    -2.6562     0.5034 H       
  32 H32           -1.9939    -0.1983     0.5227 H       
  33 H33           -1.9498     1.6362     0.3736 H       
  34 H34           -3.2801     3.7424    -0.1364 H       
  35 H35            1.0268     6.0559     0.5732 H       
  36 H36            0.9620     3.6050     0.4055 H       
  37 H37           -2.2982    10.7351     0.4718 H       
  38 H38            2.3341     9.7340     0.9949 H       
  39 H39            3.8337    11.6569     1.3203 H       
  40 H40            2.9204    13.9410     1.3623 H       
  41 H41            0.5051    14.3142     1.0794 H       
  42 H42           -1.0076    12.4036     0.7419 H       
@<TRIPOS>BOND
   1    1    2 1
   2    1    8 2
   3    1    9 am
   4    2    3 ar
   5    2    7 ar
   6    3    4 ar
   7    3   29 1
   8    4    5 ar
   9    4   30 1
  10    5    6 ar
  11    5   28 1
  12    6    7 ar
  13    6   31 1
  14    7   32 1
  15    9   10 1
  16    9   33 1
  17   10   11 ar
  18   10   15 ar
  19   11   12 ar
  20   11   34 1
  21   12   13 ar
  22   12   27 1
  23   13   14 ar
  24   13   17 1
  25   14   15 ar
  26   14   35 1
  27   15   36 1
  28   16   17 1
  29   16   20 1
  30   17   18 2
  31   18   19 1
  32   19   20 2
  33   19   21 1
  34   20   37 1
  35   21   22 ar
  36   21   26 ar
  37   22   23 ar
  38   22   38 1
  39   23   24 ar
  40   23   39 1
  41   24   25 ar
  42   24   40 1
  43   25   26 ar
  44   25   41 1
  45   26   42 1

#	End of record

