#	Name: ASD01903172
#	Creating user name:	WinNT
#	Creation time:	15. 06. 2019 19:54

#	Modifying user name:	WinNT
#	Modification time:	15. 06. 2019 19:54

#	Program:	/corina/corina34_cracker 3.40 0067  02.08.2006

@<TRIPOS>MOLECULE
ASD01903172
  54   57    0    0    0
SMALL
NO_CHARGES


@<TRIPOS>ATOM
   1 C1             2.7211    -6.4343    -1.1544 C.ar    
   2 C2             1.8468    -5.4324    -0.7809 C.ar    
   3 C3             0.4961    -5.5422    -1.0852 C.ar    
   4 C4             0.0290    -6.6608    -1.7650 C.ar    
   5 C5             0.9096    -7.6595    -2.1356 C.ar    
   6 C6             2.2535    -7.5462    -1.8307 C.ar    
   7 Cl7           -1.6583    -6.8037    -2.1475 Cl      
   8 N8            -0.3912    -4.5305    -0.7083 N.am    
   9 S9             0.1001    -2.9491    -0.7264 S.o2    
  10 C10            0.5553    -2.5634    -2.3844 C.ar    
  11 O11           -1.0505    -2.1681    -0.4342 O.2     
  12 O12            1.2944    -2.8911     0.0414 O.2     
  13 C13           -0.3908    -2.0657    -3.2616 C.ar    
  14 C14           -0.0371    -1.7624    -4.5617 C.ar    
  15 C15            1.2702    -1.9573    -4.9876 C.ar    
  16 C16            2.2180    -2.4568    -4.1041 C.ar    
  17 C17            1.8591    -2.7536    -2.8039 C.ar    
  18 N18            1.6316    -1.6514    -6.3044 N.am    
  19 C19            1.0141    -0.6465    -6.9565 C.2     
  20 C20            1.3193    -0.3917    -8.4101 C.3     
  21 O21            0.2127     0.0528    -6.3735 O.2     
  22 C22            0.6615    -0.4456   -10.7681 C.3     
  23 C23            0.4913    -1.2226    -9.4400 C.3     
  24 O24            2.7233    -0.5935    -8.8234 O.3     
  25 C25            2.9371     0.0630    -9.9841 C.2     
  26 C26            1.6226     0.7582   -10.3689 C.3     
  27 C27            1.0527     1.0654    -8.9336 C.3     
  28 C28            1.7254     1.9209   -11.3582 C.3     
  29 C29           -0.4356     1.4199    -8.9447 C.3     
  30 C30            1.8889     2.1137    -8.1969 C.3     
  31 O31            3.9727     0.0975   -10.6056 O.2     
  32 H32            3.7721    -6.3471    -0.9218 H       
  33 H33            2.2130    -4.5647    -0.2525 H       
  34 H34            0.5477    -8.5292    -2.6639 H       
  35 H35            2.9396    -8.3279    -2.1215 H       
  36 H36           -1.2948    -4.7545    -0.4360 H       
  37 H37           -1.4073    -1.9144    -2.9297 H       
  38 H38           -0.7766    -1.3744    -5.2466 H       
  39 H39            3.2356    -2.6095    -4.4323 H       
  40 H40            2.5959    -3.1418    -2.1161 H       
  41 H41            2.3265    -2.1626    -6.7478 H       
  42 H42            1.1404    -1.0724   -11.5203 H       
  43 H43           -0.3019    -0.0831   -11.1264 H       
  44 H44            0.8961    -2.2304    -9.5320 H       
  45 H45           -0.5585    -1.2562    -9.1485 H       
  46 H46            2.1406     1.5612   -12.2996 H       
  47 H47            0.7335     2.3372   -11.5340 H       
  48 H48            2.3754     2.6925   -10.9456 H       
  49 H49           -0.8277     1.3736    -7.9288 H       
  50 H50           -0.5662     2.4276    -9.3391 H       
  51 H51           -0.9733     0.7108    -9.5743 H       
  52 H52            2.9475     1.8812    -8.3129 H       
  53 H53            1.6856     3.0998    -8.6146 H       
  54 H54            1.6293     2.1071    -7.1383 H       
@<TRIPOS>BOND
   1    1    2 ar
   2    1    6 ar
   3    1   32 1
   4    2    3 ar
   5    2   33 1
   6    3    4 ar
   7    3    8 1
   8    4    5 ar
   9    4    7 1
  10    5    6 ar
  11    5   34 1
  12    6   35 1
  13    8    9 am
  14    8   36 1
  15    9   10 1
  16    9   11 2
  17    9   12 2
  18   10   13 ar
  19   10   17 ar
  20   13   14 ar
  21   13   37 1
  22   14   15 ar
  23   14   38 1
  24   15   16 ar
  25   15   18 1
  26   16   17 ar
  27   16   39 1
  28   17   40 1
  29   18   19 am
  30   18   41 1
  31   19   21 2
  32   19   20 1
  33   20   23 1
  34   20   24 1
  35   20   27 1
  36   22   23 1
  37   22   26 1
  38   22   42 1
  39   22   43 1
  40   23   44 1
  41   23   45 1
  42   24   25 1
  43   25   26 1
  44   25   31 2
  45   26   27 1
  46   26   28 1
  47   27   29 1
  48   27   30 1
  49   28   46 1
  50   28   47 1
  51   28   48 1
  52   29   49 1
  53   29   50 1
  54   29   51 1
  55   30   52 1
  56   30   53 1
  57   30   54 1

#	End of record

