#	Name: ASD07930269
#	Creating user name:	WinNT
#	Creation time:	15. 06. 2019 21:12

#	Modifying user name:	WinNT
#	Modification time:	15. 06. 2019 21:12

#	Program:	/corina/corina34_cracker 3.40 0067  02.08.2006

@<TRIPOS>MOLECULE
ASD07930269
  43   46    0    0    0
SMALL
NO_CHARGES


@<TRIPOS>ATOM
   1 S1            -0.8040     1.5146     0.5677 S.3     
   2 C2            -0.4750    -0.1992     0.3312 C.2     
   3 N3             0.6380    -0.6317    -0.1201 N.2     
   4 C4             1.8211     0.0781    -0.5439 C.3     
   5 C5             1.6935     1.6076    -0.5153 C.3     
   6 C6             0.9027     2.1130     0.6751 C.3     
   7 O7             1.5026     0.9346    -2.7704 O.3     
   8 C8             2.0251    -0.1935    -2.0577 C.3     
   9 C9             0.9649     1.8951    -1.8437 C.3     
  10 N10           -1.4575    -1.1092     0.6462 N.pl3   
  11 C11            1.2635     3.3187    -2.3182 C.3     
  12 C12            3.0210    -0.3832     0.2426 C.ar    
  13 C13            4.2688     0.1617    -0.0161 C.ar    
  14 C14            5.3758    -0.2577     0.7038 C.ar    
  15 C15            5.2410    -1.2210     1.6821 C.ar    
  16 C16            3.9873    -1.7726     1.9462 C.ar    
  17 C17            2.8746    -1.3427     1.2224 C.ar    
  18 N18            2.8134    -3.6990     3.1073 N.pl3   
  19 N19            3.0624    -4.4928     4.2342 N.2     
  20 C20            4.1852    -4.0994     4.7798 C.2     
  21 C21            4.6988    -3.0425     4.0279 C.2     
  22 C22            3.8369    -2.8061     2.9944 C.2     
  23 C23            1.6627    -3.8124     2.2078 C.3     
  24 F24            4.4062     1.1047    -0.9737 F       
  25 H25            2.6840     2.0625    -0.5219 H       
  26 H26            0.9058     3.2030     0.6769 H       
  27 H27            1.3584     1.7474     1.5953 H       
  28 H28            3.0874    -0.3081    -2.2734 H       
  29 H29            1.4873    -1.0962    -2.3477 H       
  30 H30           -0.1091     1.7502    -1.7269 H       
  31 H31           -2.3106    -0.8020     0.9909 H       
  32 H32           -1.2972    -2.0579     0.5236 H       
  33 H33            2.3368     3.4335    -2.4698 H       
  34 H34            0.7419     3.5057    -3.2568 H       
  35 H35            0.9246     4.0310    -1.5660 H       
  36 H36            6.3460     0.1700     0.4984 H       
  37 H37            6.1046    -1.5478     2.2421 H       
  38 H38            1.9010    -1.7635     1.4262 H       
  39 H39            4.6382    -4.5222     5.6644 H       
  40 H40            5.6146    -2.5060     4.2277 H       
  41 H41            0.8933    -3.1024     2.5108 H       
  42 H42            1.9766    -3.5943     1.1870 H       
  43 H43            1.2621    -4.8250     2.2562 H       
@<TRIPOS>BOND
   1    1    2 1
   2    1    6 1
   3    2    3 2
   4    2   10 1
   5    3    4 1
   6    4    8 1
   7    4   12 1
   8    4    5 1
   9    5    6 1
  10    5    9 1
  11    5   25 1
  12    6   26 1
  13    6   27 1
  14    7    8 1
  15    7    9 1
  16    8   28 1
  17    8   29 1
  18    9   11 1
  19    9   30 1
  20   10   31 1
  21   10   32 1
  22   11   33 1
  23   11   34 1
  24   11   35 1
  25   12   13 ar
  26   12   17 ar
  27   13   14 ar
  28   13   24 1
  29   14   15 ar
  30   14   36 1
  31   15   16 ar
  32   15   37 1
  33   16   17 ar
  34   16   22 1
  35   17   38 1
  36   18   19 1
  37   18   22 1
  38   18   23 1
  39   19   20 2
  40   20   21 1
  41   20   39 1
  42   21   22 2
  43   21   40 1
  44   23   41 1
  45   23   42 1
  46   23   43 1

#	End of record

