#	Name: ASD02500779
#	Creating user name:	WinNT
#	Creation time:	15. 06. 2019 20:23

#	Modifying user name:	WinNT
#	Modification time:	15. 06. 2019 20:23

#	Program:	/corina/corina34_cracker 3.40 0067  02.08.2006

@<TRIPOS>MOLECULE
ASD02500779
  48   51    0    0    0
SMALL
NO_CHARGES


@<TRIPOS>ATOM
   1 C1            -0.0167     1.3800     0.0096 C.ar    
   2 C2             0.0021    -0.0041     0.0020 C.ar    
   3 C3             1.2108    -0.6795    -0.0132 C.ar    
   4 C4             2.3982     0.0278    -0.0207 C.ar    
   5 C5             2.3807     1.4097    -0.0131 C.ar    
   6 C6             1.1731     2.0873     0.0021 C.ar    
   7 S7            -1.5540     2.2408     0.0216 S.o2    
   8 O8            -1.2961     3.5302    -0.5171 O.2     
   9 O9            -2.5173     1.3494    -0.5231 O.2     
  10 N10           -1.9742     2.4717     1.6067 N.am    
  11 F11            1.1563     3.4381     0.0090 F       
  12 F12           -1.1584    -0.6957     0.0098 F       
  13 N13           -1.3068     4.1131     4.7564 N.am    
  14 C14           -2.0294     4.0933     3.4761 C.3     
  15 C15           -1.1507     3.3260     2.4658 C.3     
  16 C16           -0.2381     2.4674     3.3809 C.3     
  17 C17           -0.0172     3.4203     4.5820 C.3     
  18 S18           -1.8486     4.8050     6.1599 S.o2    
  19 O19           -0.6946     5.0888     6.9390 O.2     
  20 O20           -2.7929     5.7966     5.7799 O.2     
  21 O21           -4.8827     0.6860     9.0858 O.3     
  22 C22           -4.1695     1.6314     8.4150 C.ar    
  23 C23           -2.8030     1.7746     8.6262 C.ar    
  24 O24           -2.1458     0.9694     9.5050 O.3     
  25 C25           -2.9508     0.2590    10.4523 C.3     
  26 C26           -4.1343    -0.3675     9.7023 C.3     
  27 C27           -2.0966     2.7473     7.9351 C.ar    
  28 C28           -2.7494     3.5701     7.0364 C.ar    
  29 C29           -4.1076     3.4261     6.8245 C.ar    
  30 C30           -4.8180     2.4595     7.5115 C.ar    
  31 H31            1.2257    -1.7594    -0.0187 H       
  32 H32            3.3405    -0.4999    -0.0322 H       
  33 H33            3.3091     1.9614    -0.0186 H       
  34 H34           -2.7657     2.0413     1.9663 H       
  35 H35           -2.9853     3.5840     3.5978 H       
  36 H36           -2.1921     5.1129     3.1265 H       
  37 H37           -0.5590     4.0176     1.8661 H       
  38 H38           -0.7460     1.5553     3.6940 H       
  39 H39            0.7055     2.2371     2.8862 H       
  40 H40            0.7716     4.1381     4.3568 H       
  41 H41            0.2316     2.8507     5.4774 H       
  42 H42           -2.3581    -0.5248    10.9239 H       
  43 H43           -3.3200     0.9486    11.2114 H       
  44 H44           -4.7697    -0.9078    10.4040 H       
  45 H45           -3.7648    -1.0516     8.9383 H       
  46 H46           -1.0353     2.8621     8.0991 H       
  47 H47           -4.6147     4.0701     6.1213 H       
  48 H48           -5.8793     2.3491     7.3441 H       
@<TRIPOS>BOND
   1    1    2 ar
   2    1    6 ar
   3    1    7 1
   4    2    3 ar
   5    2   12 1
   6    3    4 ar
   7    3   31 1
   8    4    5 ar
   9    4   32 1
  10    5    6 ar
  11    5   33 1
  12    6   11 1
  13    7    8 2
  14    7    9 2
  15    7   10 am
  16   10   15 1
  17   10   34 1
  18   13   14 1
  19   13   17 1
  20   13   18 am
  21   14   15 1
  22   14   35 1
  23   14   36 1
  24   15   16 1
  25   15   37 1
  26   16   17 1
  27   16   38 1
  28   16   39 1
  29   17   40 1
  30   17   41 1
  31   18   19 2
  32   18   20 2
  33   18   28 1
  34   21   22 1
  35   21   26 1
  36   22   23 ar
  37   22   30 ar
  38   23   24 1
  39   23   27 ar
  40   24   25 1
  41   25   26 1
  42   25   42 1
  43   25   43 1
  44   26   44 1
  45   26   45 1
  46   27   28 ar
  47   27   46 1
  48   28   29 ar
  49   29   30 ar
  50   29   47 1
  51   30   48 1

#	End of record

