#	Name: ASD03740047
#	Creating user name:	WinNT
#	Creation time:	15. 06. 2019 20:46

#	Modifying user name:	WinNT
#	Modification time:	15. 06. 2019 20:46

#	Program:	/corina/corina34_cracker 3.40 0067  02.08.2006

@<TRIPOS>MOLECULE
ASD03740047
  58   60    0    0    0
SMALL
NO_CHARGES


@<TRIPOS>ATOM
   1 C1            -0.0170     1.3993     0.0097 C.ar    
   2 C2             0.0021    -0.0041     0.0020 C.ar    
   3 C3            -1.1607    -0.7203     0.0092 C.ar    
   4 C4            -2.3886    -0.0440     0.0250 C.ar    
   5 C5            -2.4092     1.3756     0.0334 C.ar    
   6 C6            -1.1969     2.0843     0.0304 C.ar    
   7 C7            -3.6187    -0.7272     0.0325 C.ar    
   8 C8            -4.7700    -0.0001     0.0475 C.ar    
   9 N9            -4.7605     1.3260     0.0551 N.ar    
  10 C10           -3.6515     2.0287     0.0488 C.ar    
  11 O11            1.1564     2.0856     0.0022 O.3     
  12 C12            1.0737     3.5122     0.0107 C.3     
  13 C13            2.4841     4.1050     0.0004 C.3     
  14 O14            1.1928    -0.6586    -0.0133 O.3     
  15 C15            1.1480    -2.0869    -0.0205 C.3     
  16 C16            2.5737    -2.6418    -0.0376 C.3     
  17 C17           -3.7123     3.5344     0.0586 C.3     
  18 C18           -3.7189     4.0277     1.4826 C.ar    
  19 C19           -2.5249     4.3018     2.1231 C.ar    
  20 C20           -2.5293     4.7554     3.4324 C.ar    
  21 C21           -3.7373     4.9339     4.0996 C.ar    
  22 C22           -4.9306     4.6572     3.4518 C.ar    
  23 C23           -4.9194     4.2104     2.1436 C.ar    
  24 O24           -3.7468     5.3784     5.3848 O.3     
  25 C25           -5.0235     5.5382     6.0066 C.3     
  26 C26           -4.8337     6.0422     7.4387 C.3     
  27 O27           -1.3556     5.0251     4.0641 O.3     
  28 C28           -0.1547     4.8183     3.3177 C.3     
  29 C29            1.0535     5.1720     4.1872 C.3     
  30 H30           -1.1345    -1.7999     0.0025 H       
  31 H31           -1.1985     3.1642     0.0366 H       
  32 H32           -3.6492    -1.8067     0.0262 H       
  33 H33           -5.7176    -0.5181     0.0530 H       
  34 H34            0.5312     3.8499    -0.8724 H       
  35 H35            0.5482     3.8404     0.9075 H       
  36 H36            3.0266     3.7673     0.8834 H       
  37 H37            3.0096     3.7768    -0.8964 H       
  38 H38            2.4210     5.1931     0.0068 H       
  39 H39            0.6318    -2.4387     0.8728 H       
  40 H40            0.6142    -2.4291    -0.9071 H       
  41 H41            3.0898    -2.2899    -0.9309 H       
  42 H42            3.1074    -2.2995     0.8490 H       
  43 H43            2.5395    -3.7312    -0.0431 H       
  44 H44           -2.8426     3.9366    -0.4611 H       
  45 H45           -4.6211     3.8647    -0.4446 H       
  46 H46           -1.5887     4.1621     1.6031 H       
  47 H47           -5.8695     4.7949     3.9674 H       
  48 H48           -5.8501     3.9951     1.6398 H       
  49 H49           -5.6145     6.2599     5.4428 H       
  50 H50           -5.5414     4.5793     6.0246 H       
  51 H51           -4.2427     5.3205     8.0026 H       
  52 H52           -4.3158     7.0011     7.4208 H       
  53 H53           -5.8075     6.1641     7.9130 H       
  54 H54           -0.0907     3.7733     3.0144 H       
  55 H55           -0.1634     5.4537     2.4321 H       
  56 H56            1.0623     4.5366     5.0728 H       
  57 H57            1.9695     5.0143     3.6178 H       
  58 H58            0.9896     6.2170     4.4904 H       
@<TRIPOS>BOND
   1    1    2 ar
   2    1   11 1
   3    1    6 ar
   4    2    3 ar
   5    2   14 1
   6    3    4 ar
   7    3   30 1
   8    4    5 ar
   9    4    7 ar
  10    5    6 ar
  11    5   10 ar
  12    6   31 1
  13    7    8 ar
  14    7   32 1
  15    8    9 ar
  16    8   33 1
  17    9   10 ar
  18   10   17 1
  19   11   12 1
  20   12   13 1
  21   12   34 1
  22   12   35 1
  23   13   36 1
  24   13   37 1
  25   13   38 1
  26   14   15 1
  27   15   16 1
  28   15   39 1
  29   15   40 1
  30   16   41 1
  31   16   42 1
  32   16   43 1
  33   17   18 1
  34   17   44 1
  35   17   45 1
  36   18   19 ar
  37   18   23 ar
  38   19   20 ar
  39   19   46 1
  40   20   21 ar
  41   20   27 1
  42   21   22 ar
  43   21   24 1
  44   22   23 ar
  45   22   47 1
  46   23   48 1
  47   24   25 1
  48   25   26 1
  49   25   49 1
  50   25   50 1
  51   26   51 1
  52   26   52 1
  53   26   53 1
  54   27   28 1
  55   28   29 1
  56   28   54 1
  57   28   55 1
  58   29   56 1
  59   29   57 1
  60   29   58 1

#	End of record

