#	Name: ASD01884298
#	Creating user name:	WinNT
#	Creation time:	15. 06. 2019 19:47

#	Modifying user name:	WinNT
#	Modification time:	15. 06. 2019 19:47

#	Program:	/corina/corina34_cracker 3.40 0067  02.08.2006

@<TRIPOS>MOLECULE
ASD01884298
  26   27    0    0    0
SMALL
NO_CHARGES


@<TRIPOS>ATOM
   1 C1             0.4259     0.3589     0.6386 C.ar    
   2 C2             0.0841    -0.0496    -0.6375 C.ar    
   3 C3             0.9037     0.2644    -1.7101 C.ar    
   4 C4             2.0649     0.9874    -1.5048 C.ar    
   5 C5             2.4077     1.3976    -0.2245 C.ar    
   6 C6             1.5852     1.0813     0.8471 C.ar    
   7 O7             3.5482     2.1077    -0.0202 O.3     
   8 Br8           -1.5032    -1.0381    -0.9194 Br      
   9 C9             3.4830     3.4606    -0.1173 C.ar    
  10 C10            2.2636     4.1041    -0.3105 C.ar    
  11 C11            2.2386     5.4810    -0.4037 C.ar    
  12 N12            3.3515     6.1854    -0.3123 N.ar    
  13 C13            4.5264     5.6109    -0.1292 C.ar    
  14 C14            4.6333     4.2395    -0.0203 C.ar    
  15 C15            5.7650     6.4639    -0.0325 C.3     
  16 F16            0.5688    -0.1362    -2.9561 F       
  17 O17            3.2836     7.5961    -0.4140 O.3     
  18 H18           -0.2162     0.1169     1.4726 H       
  19 H19            2.7043     1.2320    -2.3401 H       
  20 H20            1.8509     1.4000     1.8442 H       
  21 H21            1.3498     3.5337    -0.3868 H       
  22 H22            1.2970     5.9884    -0.5536 H       
  23 H23            5.5971     3.7759     0.1298 H       
  24 H24            5.9378     6.7369     1.0085 H       
  25 H25            6.6216     5.9046    -0.4085 H       
  26 H26            5.6313     7.3673    -0.6276 H       
@<TRIPOS>BOND
   1    1    2 ar
   2    1    6 ar
   3    1   18 1
   4    2    3 ar
   5    2    8 1
   6    3    4 ar
   7    3   16 1
   8    4    5 ar
   9    4   19 1
  10    5    6 ar
  11    5    7 1
  12    6   20 1
  13    7    9 1
  14    9   10 ar
  15    9   14 ar
  16   10   11 ar
  17   10   21 1
  18   11   12 ar
  19   11   22 1
  20   12   13 ar
  21   12   17 1
  22   13   14 ar
  23   13   15 1
  24   14   23 1
  25   15   24 1
  26   15   25 1
  27   15   26 1

#	End of record

