#	Name: ASD08170100
#	Creating user name:	WinNT
#	Creation time:	15. 06. 2019 21:17

#	Modifying user name:	WinNT
#	Modification time:	15. 06. 2019 21:17

#	Program:	/corina/corina34_cracker 3.40 0067  02.08.2006

@<TRIPOS>MOLECULE
ASD08170100
  66   69    0    0    0
SMALL
NO_CHARGES


@<TRIPOS>ATOM
   1 C1            -0.0187     1.5258     0.0104 C.3     
   2 C2             0.0021    -0.0041     0.0020 C.3     
   3 C3             1.4167     2.0553    -0.0004 C.3     
   4 C4             1.3960     3.5852     0.0080 C.3     
   5 C5             2.8098     4.1068    -0.0027 C.2     
   6 C6            -1.4117    -0.5257     0.0127 C.2     
   7 S7             3.7994     4.4593     1.4143 S.3     
   8 C8             5.0770     4.9390     0.3786 C.2     
   9 N9             4.6867     4.8059    -0.8531 N.2     
  10 N10            3.5185     4.3715    -1.0541 N.2     
  11 S11           -2.3742    -0.8935     1.4445 S.3     
  12 N12           -2.1404    -0.7792    -1.0277 N.2     
  13 N13           -3.3061    -1.2119    -0.8091 N.2     
  14 C14           -3.6713    -1.3622     0.4283 C.2     
  15 N15           -4.9107    -1.8251     0.8572 N.am    
  16 C16           -5.8536    -2.1613    -0.0452 C.2     
  17 O17           -5.6213    -2.0602    -1.2312 O.2     
  18 N18            6.3249     5.3958     0.7887 N.am    
  19 C19            7.2495     5.7444    -0.1278 C.2     
  20 C20            8.6017     6.2394     0.3166 C.3     
  21 O21            6.9932     5.6598    -1.3102 O.2     
  22 C22           -7.1965    -2.6628     0.4196 C.3     
  23 C23           -7.9138    -1.5644     1.1613 C.ar    
  24 C24           -7.8322    -1.4935     2.5394 C.ar    
  25 C25            9.3334     5.1308     1.0283 C.ar    
  26 C26            9.2798     5.0409     2.4067 C.ar    
  27 O27           -7.9741    -3.0602    -0.7116 O.3     
  28 O28            9.3564     6.6524    -0.8245 O.3     
  29 C29           -8.8997    -4.1143    -0.4393 C.3     
  30 C30           10.2877     7.7026    -0.5564 C.3     
  31 C31           -8.4902    -0.4860     3.2198 C.ar    
  32 C32           -9.2293     0.4509     2.5220 C.ar    
  33 C33           -9.3100     0.3805     1.1438 C.ar    
  34 C34           -8.6485    -0.6245     0.4631 C.ar    
  35 C35           10.0536     4.2006     0.3025 C.ar    
  36 C36           10.7248     3.1837     0.9554 C.ar    
  37 C37           10.6762     3.0973     2.3342 C.ar    
  38 C38            9.9510     4.0240     3.0596 C.ar    
  39 H39           -0.5459     1.8868    -0.8726 H       
  40 H40           -0.5289     1.8773     0.9072 H       
  41 H41            0.5123    -0.3556    -0.8948 H       
  42 H42            0.5293    -0.3651     0.8851 H       
  43 H43            1.9439     1.6943     0.8826 H       
  44 H44            1.9269     1.7038    -0.8972 H       
  45 H45            0.8688     3.9463    -0.8751 H       
  46 H46            0.8858     3.9367     0.9048 H       
  47 H47           -5.0964    -1.9059     1.8058 H       
  48 H48            6.5298     5.4635     1.7344 H       
  49 H49            8.4749     7.0843     0.9935 H       
  50 H50           -7.0560    -3.5169     1.0821 H       
  51 H51           -7.2548    -2.2255     3.0846 H       
  52 H52            8.7138     5.7653     2.9735 H       
  53 H53           -9.4508    -4.3577    -1.3477 H       
  54 H54           -8.3567    -4.9952    -0.0967 H       
  55 H55           -9.5976    -3.7942     0.3343 H       
  56 H56            9.7520     8.5787    -0.1908 H       
  57 H57           11.0010     7.3717     0.1984 H       
  58 H58           10.8203     7.9584    -1.4723 H       
  59 H59           -8.4271    -0.4310     4.2966 H       
  60 H60           -9.7439     1.2376     3.0537 H       
  61 H61           -9.8877     1.1123     0.5987 H       
  62 H62           -8.7116    -0.6794    -0.6136 H       
  63 H63           10.0916     4.2681    -0.7747 H       
  64 H64           11.2869     2.4565     0.3883 H       
  65 H65           11.2003     2.3026     2.8443 H       
  66 H66            9.9130     3.9565     4.1369 H       
@<TRIPOS>BOND
   1    1    2 1
   2    1    3 1
   3    1   39 1
   4    1   40 1
   5    2    6 1
   6    2   41 1
   7    2   42 1
   8    3    4 1
   9    3   43 1
  10    3   44 1
  11    4    5 1
  12    4   45 1
  13    4   46 1
  14    5    7 1
  15    5   10 2
  16    6   11 1
  17    6   12 2
  18    7    8 1
  19    8    9 2
  20    8   18 1
  21    9   10 1
  22   11   14 1
  23   12   13 1
  24   13   14 2
  25   14   15 1
  26   15   16 am
  27   15   47 1
  28   16   17 2
  29   16   22 1
  30   18   19 am
  31   18   48 1
  32   19   21 2
  33   19   20 1
  34   20   25 1
  35   20   28 1
  36   20   49 1
  37   22   23 1
  38   22   27 1
  39   22   50 1
  40   23   24 ar
  41   23   34 ar
  42   24   31 ar
  43   24   51 1
  44   25   26 ar
  45   25   35 ar
  46   26   38 ar
  47   26   52 1
  48   27   29 1
  49   28   30 1
  50   29   53 1
  51   29   54 1
  52   29   55 1
  53   30   56 1
  54   30   57 1
  55   30   58 1
  56   31   32 ar
  57   31   59 1
  58   32   33 ar
  59   32   60 1
  60   33   34 ar
  61   33   61 1
  62   34   62 1
  63   35   36 ar
  64   35   63 1
  65   36   37 ar
  66   36   64 1
  67   37   38 ar
  68   37   65 1
  69   38   66 1

#	End of record

