#	Name: ASD01150304
#	Creating user name:	WinNT
#	Creation time:	15. 06. 2019 19:04

#	Modifying user name:	WinNT
#	Modification time:	15. 06. 2019 19:04

#	Program:	/corina/corina34_cracker 3.40 0067  02.08.2006

@<TRIPOS>MOLECULE
ASD01150304
  66   69    0    0    0
SMALL
NO_CHARGES


@<TRIPOS>ATOM
   1 N1            -0.0169     1.3927     0.0097 N.pl3   
   2 C2             0.0021    -0.0041     0.0020 C.2     
   3 C3            -1.3281    -0.4052     0.0131 C.2     
   4 N4            -2.0858     0.6950     0.0265 N.2     
   5 C5            -1.3234     1.7683     0.0302 C.2     
   6 C6             1.1389    -0.8368    -0.0137 C.2     
   7 C7             1.0964     2.2430     0.0036 C.ar    
   8 C8             1.3307     3.0747    -1.0833 C.ar    
   9 C9             2.4293     3.9118    -1.0863 C.ar    
  10 C10            3.2956     3.9219    -0.0086 C.ar    
  11 C11            3.0650     3.0948     1.0753 C.ar    
  12 C12            1.9648     2.2599     1.0870 C.ar    
  13 N13           -1.7777     3.0669     0.0433 N.3     
  14 C14           -3.2460     3.1108     0.0522 C.3     
  15 C15           -1.2219     3.8076     1.1836 C.3     
  16 O16            1.0069    -2.0474    -0.0189 O.2     
  17 O17            2.3747    -0.2923    -0.0231 O.3     
  18 C18            3.4817    -1.1958    -0.0389 C.3     
  19 C19            3.4083    -2.0704    -1.2922 C.3     
  20 C20            4.7889    -0.4008    -0.0476 C.3     
  21 C21            3.4331    -2.0838     1.2061 C.3     
  22 C22           -3.1126    -1.9659     0.0221 C.2     
  23 O23           -3.9050    -1.0436     0.0353 O.2     
  24 C24           -3.6006    -3.3566     0.0190 C.2     
  25 C25           -2.7898    -4.5792     0.0044 C.2     
  26 C26           -3.6722    -5.6090     0.0080 C.2     
  27 O27           -4.9219    -5.1102     0.0233 O.3     
  28 C28           -4.9012    -3.7738     0.0352 C.2     
  29 C29           -3.3190    -7.0445    -0.0035 C.ar    
  30 C30           -4.3237    -8.0133     0.0016 C.ar    
  31 C31           -3.9880    -9.3512    -0.0091 C.ar    
  32 C32           -2.6573    -9.7338    -0.0246 C.ar    
  33 C33           -1.6561    -8.7773    -0.0294 C.ar    
  34 C34           -1.9796    -7.4363    -0.0254 C.ar    
  35 Cl35          -2.2425   -11.4195    -0.0375 Cl      
  36 N36           -1.7882    -1.7164     0.0102 N.am    
  37 C37           -6.1117    -2.8764     0.0538 C.3     
  38 F38           -6.4974    -2.5862    -1.2593 F       
  39 F39           -7.1611    -3.5224     0.7161 F       
  40 F40           -5.8005    -1.6873     0.7220 F       
  41 H41            0.6548     3.0667    -1.9256 H       
  42 H42            2.6120     4.5590    -1.9314 H       
  43 H43            4.1543     4.5769    -0.0136 H       
  44 H44            3.7434     3.1049     1.9156 H       
  45 H45            1.7852     1.6142     1.9339 H       
  46 H46           -3.6194     2.6010     0.9404 H       
  47 H47           -3.5784     4.1489     0.0625 H       
  48 H48           -3.6298     2.6152    -0.8395 H       
  49 H49           -0.1341     3.8186     1.1143 H       
  50 H50           -1.5972     4.8309     1.1699 H       
  51 H51           -1.5219     3.3230     2.1127 H       
  52 H52            3.4429    -1.4378    -2.1792 H       
  53 H53            4.2526    -2.7596    -1.3043 H       
  54 H54            2.4770    -2.6368    -1.2860 H       
  55 H55            4.8411     0.2222     0.8452 H       
  56 H56            5.6332    -1.0900    -0.0597 H       
  57 H57            4.8235     0.2318    -0.9346 H       
  58 H58            2.5018    -2.6502     1.2123 H       
  59 H59            4.2775    -2.7730     1.1940 H       
  60 H60            3.4854    -1.4607     2.0990 H       
  61 H61           -1.7119    -4.6455    -0.0074 H       
  62 H62           -5.3619    -7.7160     0.0144 H       
  63 H63           -4.7646   -10.1017    -0.0051 H       
  64 H64           -0.6199    -9.0817    -0.0407 H       
  65 H65           -1.1978    -6.6911    -0.0291 H       
  66 H66           -1.1562    -2.4522    -0.0003 H       
@<TRIPOS>BOND
   1    1    2 1
   2    1    7 1
   3    1    5 1
   4    2    3 2
   5    2    6 1
   6    3    4 1
   7    3   36 1
   8    4    5 2
   9    5   13 1
  10    6   16 2
  11    6   17 1
  12    7    8 ar
  13    7   12 ar
  14    8    9 ar
  15    8   41 1
  16    9   10 ar
  17    9   42 1
  18   10   11 ar
  19   10   43 1
  20   11   12 ar
  21   11   44 1
  22   12   45 1
  23   13   14 1
  24   13   15 1
  25   14   46 1
  26   14   47 1
  27   14   48 1
  28   15   49 1
  29   15   50 1
  30   15   51 1
  31   17   18 1
  32   18   19 1
  33   18   20 1
  34   18   21 1
  35   19   52 1
  36   19   53 1
  37   19   54 1
  38   20   55 1
  39   20   56 1
  40   20   57 1
  41   21   58 1
  42   21   59 1
  43   21   60 1
  44   22   23 2
  45   22   24 1
  46   22   36 am
  47   24   25 1
  48   24   28 2
  49   25   26 2
  50   25   61 1
  51   26   27 1
  52   26   29 1
  53   27   28 1
  54   28   37 1
  55   29   30 ar
  56   29   34 ar
  57   30   31 ar
  58   30   62 1
  59   31   32 ar
  60   31   63 1
  61   32   33 ar
  62   32   35 1
  63   33   34 ar
  64   33   64 1
  65   34   65 1
  66   36   66 1
  67   37   38 1
  68   37   39 1
  69   37   40 1

#	End of record

