#	Name: ASD01230564
#	Creating user name:	WinNT
#	Creation time:	15. 06. 2019 19:14

#	Modifying user name:	WinNT
#	Modification time:	15. 06. 2019 19:14

#	Program:	/corina/corina34_cracker 3.40 0067  02.08.2006

@<TRIPOS>MOLECULE
ASD01230564
  43   46    0    0    0
SMALL
NO_CHARGES


@<TRIPOS>ATOM
   1 S1             0.0796     1.7751     1.3214 S.o2    
   2 N2            -0.1047     0.2594     0.6839 N.am    
   3 C3             0.6427    -0.1819    -0.2986 C.2     
   4 N4             1.6408     0.5195    -0.9128 N.pl3   
   5 C5             1.9775     1.9102    -0.5972 C.3     
   6 C6             1.8042     2.1796     0.9003 C.3     
   7 C7             0.3591    -1.5581    -0.7585 C.2     
   8 C8             1.1310    -2.1027    -1.7617 C.2     
   9 C9             2.1620    -1.3338    -2.3190 C.2     
  10 C10            2.3907    -0.0793    -1.8944 C.2     
  11 C11           -0.7398    -2.3411    -0.1489 C.ar    
  12 C12           -0.4546    -3.4965     0.5795 C.ar    
  13 C13           -1.4804    -4.2229     1.1462 C.ar    
  14 C14           -2.7960    -3.8058     0.9928 C.ar    
  15 C15           -3.0836    -2.6566     0.2681 C.ar    
  16 C16           -2.0625    -1.9221    -0.2966 C.ar    
  17 O17           -3.8044    -4.5241     1.5526 O.3     
  18 C18           -3.8866    -5.8134    -0.4515 C.ar    
  19 C19           -4.3870    -5.4969     0.8037 C.ar    
  20 C20           -5.4933    -6.1901     1.2843 C.ar    
  21 C21           -6.0525    -7.1738     0.4844 C.ar    
  22 C22           -5.4977    -7.4321    -0.7549 C.ar    
  23 N23           -4.4483    -6.7565    -1.1811 N.ar    
  24 C24           -6.0691    -5.8793     2.6419 C.3     
  25 F25           -7.1679    -6.7107     2.8838 F       
  26 F26           -5.0951    -6.0966     3.6224 F       
  27 F27           -6.4787    -4.5422     2.6797 F       
  28 O28           -0.8235     2.5861     0.5826 O.2     
  29 O29           -0.0681     1.5939     2.7231 O.2     
  30 H30            3.0126     2.1024    -0.8796 H       
  31 H31            1.3226     2.5753    -1.1602 H       
  32 H32            2.0023     3.2299     1.1142 H       
  33 H33            2.4841     1.5484     1.4725 H       
  34 H34            0.9447    -3.1069    -2.1129 H       
  35 H35            2.7799    -1.7544    -3.0985 H       
  36 H36            3.1977     0.4805    -2.3437 H       
  37 H37            0.5683    -3.8217     0.6990 H       
  38 H38           -1.2605    -5.1175     1.7099 H       
  39 H39           -4.1080    -2.3356     0.1502 H       
  40 H40           -2.2865    -1.0258    -0.8559 H       
  41 H41           -3.0310    -5.2784    -0.8362 H       
  42 H42           -6.9117    -7.7323     0.8254 H       
  43 H43           -5.9291    -8.1978    -1.3825 H       
@<TRIPOS>BOND
   1    1    2 am
   2    1    6 1
   3    1   28 2
   4    1   29 2
   5    2    3 2
   6    3    4 1
   7    3    7 1
   8    4    5 1
   9    4   10 1
  10    5    6 1
  11    5   30 1
  12    5   31 1
  13    6   32 1
  14    6   33 1
  15    7    8 2
  16    7   11 1
  17    8    9 1
  18    8   34 1
  19    9   10 2
  20    9   35 1
  21   10   36 1
  22   11   12 ar
  23   11   16 ar
  24   12   13 ar
  25   12   37 1
  26   13   14 ar
  27   13   38 1
  28   14   15 ar
  29   14   17 1
  30   15   16 ar
  31   15   39 1
  32   16   40 1
  33   17   19 1
  34   18   19 ar
  35   18   23 ar
  36   18   41 1
  37   19   20 ar
  38   20   21 ar
  39   20   24 1
  40   21   22 ar
  41   21   42 1
  42   22   23 ar
  43   22   43 1
  44   24   25 1
  45   24   26 1
  46   24   27 1

#	End of record

