#	Name: ASD08070199
#	Creating user name:	WinNT
#	Creation time:	15. 06. 2019 21:14

#	Modifying user name:	WinNT
#	Modification time:	15. 06. 2019 21:14

#	Program:	/corina/corina34_cracker 3.40 0067  02.08.2006

@<TRIPOS>MOLECULE
ASD08070199
  38   39    0    0    0
SMALL
NO_CHARGES


@<TRIPOS>ATOM
   1 C1            -0.0169     1.3931     0.0097 C.ar    
   2 C2             0.0021    -0.0041     0.0020 C.ar    
   3 C3             1.2897    -0.7289    -0.0136 C.2     
   4 O4             2.3357    -0.1097    -0.0198 O.2     
   5 N5             1.3043    -2.0766    -0.0210 N.am    
   6 C6             2.5809    -2.7952    -0.0365 C.3     
   7 C7             2.3895    -4.1879     0.5674 C.3     
   8 C8             3.7227    -4.9384     0.5512 C.3     
   9 C9            -1.2010    -0.7119     0.0097 C.ar    
  10 C10           -2.3995    -0.0292     0.0247 C.ar    
  11 C11           -2.4119     1.3545     0.0323 C.ar    
  12 C12           -1.2243     2.0634     0.0306 C.ar    
  13 Cl13           1.4731     2.2839     0.0003 Cl      
  14 C14           -1.2478     3.5702     0.0394 C.3     
  15 C15            3.0738    -2.9281    -1.4788 C.3     
  16 C16            4.4070    -3.6786    -1.4950 C.3     
  17 C17            4.2156    -5.0713    -0.8911 C.3     
  18 C18            1.8965    -4.0550     2.0097 C.3     
  19 H19            0.4696    -2.5707    -0.0160 H       
  20 H20            3.3158    -2.2430     0.5492 H       
  21 H21            1.6546    -4.7400    -0.0183 H       
  22 H22            4.4576    -4.3862     1.1369 H       
  23 H23            3.5863    -5.9306     0.9814 H       
  24 H24           -1.1935    -1.7918     0.0034 H       
  25 H25           -3.3308    -0.5761     0.0303 H       
  26 H26           -3.3535     1.8835     0.0437 H       
  27 H27           -1.2485     3.9275     1.0692 H       
  28 H28           -0.3661     3.9504    -0.4765 H       
  29 H29           -2.1458     3.9225    -0.4680 H       
  30 H30            2.3389    -3.4803    -2.0646 H       
  31 H31            3.2101    -1.9359    -1.9091 H       
  32 H32            4.7582    -3.7733    -2.5226 H       
  33 H33            5.1419    -3.1264    -0.9093 H       
  34 H34            5.1654    -5.6059    -0.9027 H       
  35 H35            3.4807    -5.6234    -1.4768 H       
  36 H36            0.9467    -3.5203     2.0212 H       
  37 H37            1.7602    -5.0472     2.4399 H       
  38 H38            2.6315    -3.5028     2.5954 H       
@<TRIPOS>BOND
   1    1    2 ar
   2    1   13 1
   3    1   12 ar
   4    2    3 1
   5    2    9 ar
   6    3    4 2
   7    3    5 am
   8    5    6 1
   9    5   19 1
  10    6    7 1
  11    6   15 1
  12    6   20 1
  13    7    8 1
  14    7   18 1
  15    7   21 1
  16    8   17 1
  17    8   22 1
  18    8   23 1
  19    9   10 ar
  20    9   24 1
  21   10   11 ar
  22   10   25 1
  23   11   12 ar
  24   11   26 1
  25   12   14 1
  26   14   27 1
  27   14   28 1
  28   14   29 1
  29   15   16 1
  30   15   30 1
  31   15   31 1
  32   16   17 1
  33   16   32 1
  34   16   33 1
  35   17   34 1
  36   17   35 1
  37   18   36 1
  38   18   37 1
  39   18   38 1

#	End of record

