#	Name: ASD01140300
#	Creating user name:	WinNT
#	Creation time:	15. 06. 2019 19:00

#	Modifying user name:	WinNT
#	Modification time:	15. 06. 2019 19:00

#	Program:	/corina/corina34_cracker 3.40 0067  02.08.2006

@<TRIPOS>MOLECULE
ASD01140300
  57   61    0    0    0
SMALL
NO_CHARGES


@<TRIPOS>ATOM
   1 N1            -0.0498     1.3218     0.0863 N.pl3   
   2 C2            -0.0180    -0.0167     0.0731 C.2     
   3 C3             1.1664    -0.7210    -0.0084 C.2     
   4 C4             2.4323     0.0222    -0.0835 C.2     
   5 C5             2.3525     1.4977    -0.0665 C.ar    
   6 N6             3.4519     2.2418    -0.1310 N.ar    
   7 C7             3.3871     3.5600    -0.1163 C.ar    
   8 C8             2.1574     4.2190    -0.0318 C.ar    
   9 C9             1.0007     3.4917     0.0365 C.ar    
  10 C10            1.0874     2.0955     0.0197 C.ar    
  11 C11            1.1617    -2.1927    -0.0194 C.2     
  12 O12            1.4484    -2.8093     0.9891 O.2     
  13 N13            0.8399    -2.8571    -1.1470 N.am    
  14 O14            3.5033    -0.5545    -0.1564 O.2     
  15 C15           -1.3500     1.9917     0.1692 C.3     
  16 N16            4.5593     4.3039    -0.1854 N.pl3   
  17 C17            5.8203     6.3648     0.3614 C.3     
  18 C18            4.4999     5.7677    -0.1698 C.3     
  19 C19            4.4364     6.3295    -1.6060 C.3     
  20 C20            5.2329     7.6160    -1.5636 C.ar    
  21 C21            5.2598     8.6843    -2.4445 C.ar    
  22 C22            6.0781     9.7689    -2.1969 C.ar    
  23 C23            6.8734     9.7892    -1.0662 C.ar    
  24 C24            6.8480     8.7248    -0.1866 C.ar    
  25 C25            6.0280     7.6362    -0.4332 C.ar    
  26 C26            0.9187    -4.3252    -1.2098 C.3     
  27 C27           -0.4087    -4.8574    -1.7618 C.3     
  28 O28           -0.7128    -4.1850    -2.9862 O.3     
  29 C29           -0.9033    -2.7749    -2.8478 C.3     
  30 C30            0.3934    -2.1363    -2.3497 C.3     
  31 C31           -1.7172     2.2127     1.6379 C.3     
  32 H32           -0.9483    -0.5624     0.1284 H       
  33 H33            2.1205     5.2983    -0.0201 H       
  34 H34            0.0419     3.9844     0.1025 H       
  35 H35           -1.2963     2.9536    -0.3406 H       
  36 H36           -2.1095     1.3707    -0.3058 H       
  37 H37            5.4166     3.8539    -0.2439 H       
  38 H38            5.7320     6.5928     1.4236 H       
  39 H39            6.6445     5.6725     0.1896 H       
  40 H40            3.6525     6.1131     0.4224 H       
  41 H41            4.8884     5.6277    -2.3069 H       
  42 H42            3.4032     6.5334    -1.8871 H       
  43 H43            4.6390     8.6691    -3.3282 H       
  44 H44            6.0969    10.6003    -2.8860 H       
  45 H45            7.5142    10.6364    -0.8712 H       
  46 H46            7.4696     8.7413     0.6964 H       
  47 H47            1.7352    -4.6211    -1.8685 H       
  48 H48            1.0882    -4.7268    -0.2108 H       
  49 H49           -0.3232    -5.9283    -1.9461 H       
  50 H50           -1.2034    -4.6741    -1.0386 H       
  51 H51           -1.1735    -2.3475    -3.8134 H       
  52 H52           -1.6998    -2.5839    -2.1286 H       
  53 H53            0.2170    -1.0884    -2.1072 H       
  54 H54            1.1595    -2.2112    -3.1214 H       
  55 H55           -0.9576     2.8337     2.1128 H       
  56 H56           -2.6846     2.7111     1.6995 H       
  57 H57           -1.7709     1.2508     2.1477 H       
@<TRIPOS>BOND
   1    1    2 1
   2    1   10 1
   3    1   15 1
   4    2    3 2
   5    2   32 1
   6    3    4 1
   7    3   11 1
   8    4    5 1
   9    4   14 2
  10    5    6 ar
  11    5   10 ar
  12    6    7 ar
  13    7    8 ar
  14    7   16 1
  15    8    9 ar
  16    8   33 1
  17    9   10 ar
  18    9   34 1
  19   11   12 2
  20   11   13 am
  21   13   26 1
  22   13   30 1
  23   15   31 1
  24   15   35 1
  25   15   36 1
  26   16   18 1
  27   16   37 1
  28   17   18 1
  29   17   25 1
  30   17   38 1
  31   17   39 1
  32   18   19 1
  33   18   40 1
  34   19   20 1
  35   19   41 1
  36   19   42 1
  37   20   21 ar
  38   20   25 ar
  39   21   22 ar
  40   21   43 1
  41   22   23 ar
  42   22   44 1
  43   23   24 ar
  44   23   45 1
  45   24   25 ar
  46   24   46 1
  47   26   27 1
  48   26   47 1
  49   26   48 1
  50   27   28 1
  51   27   49 1
  52   27   50 1
  53   28   29 1
  54   29   30 1
  55   29   51 1
  56   29   52 1
  57   30   53 1
  58   30   54 1
  59   31   55 1
  60   31   56 1
  61   31   57 1

#	End of record

