#	Name: ASD07930729
#	Creating user name:	WinNT
#	Creation time:	15. 06. 2019 21:13

#	Modifying user name:	WinNT
#	Modification time:	15. 06. 2019 21:13

#	Program:	/corina/corina34_cracker 3.40 0067  02.08.2006

@<TRIPOS>MOLECULE
ASD07930729
  38   39    0    0    0
SMALL
NO_CHARGES


@<TRIPOS>ATOM
   1 C1            -0.1209     1.2012    -0.3656 C.3     
   2 N2            -0.7593    -0.9397    -2.3446 N.2     
   3 N3             1.0063    -2.0809    -1.3240 N.pl3   
   4 C4             1.0882    -3.0091    -0.1914 C.3     
   5 C5             1.3255    -2.2129     1.0993 C.3     
   6 S6            -0.0117    -0.9894     1.2696 S.o2    
   7 N7            -0.0290    -0.2542    -0.2257 N.am    
   8 C8             0.0474    -1.0886    -1.3318 C.2     
   9 C9             2.2477    -3.9827    -0.4116 C.3     
  10 O10           -1.2749    -1.6330     1.3661 O.2     
  11 O11            0.3615     0.0434     2.1715 O.2     
  12 C12           -0.2017    -3.7801    -0.0782 C.ar    
  13 C13           -0.3595    -4.7218     0.9240 C.ar    
  14 C14           -1.5450    -5.4299     1.0283 C.ar    
  15 C15           -2.5704    -5.1961     0.1323 C.ar    
  16 C16           -2.4125    -4.2541    -0.8702 C.ar    
  17 C17           -1.2292    -3.5428    -0.9716 C.ar    
  18 F18            0.6431    -4.9504     1.8001 F       
  19 F19           -3.4150    -4.0258    -1.7466 F       
  20 C20            2.6745    -1.4952     1.0219 C.3     
  21 C21            2.9869    -0.8495     2.3733 C.3     
  22 H22            0.8816     1.6289    -0.3793 H       
  23 H23           -0.6328     1.4451    -1.2965 H       
  24 H24           -0.6799     1.6125     0.4749 H       
  25 H25           -1.4273    -0.2365    -2.3333 H       
  26 H26            1.6276    -2.1619    -2.0644 H       
  27 H27            1.3166    -2.8885     1.9546 H       
  28 H28            3.1806    -3.4246    -0.4917 H       
  29 H29            2.3081    -4.6723     0.4304 H       
  30 H30            2.0806    -4.5449    -1.3303 H       
  31 H31           -1.6678    -6.1651     1.8098 H       
  32 H32           -3.4949    -5.7484     0.2136 H       
  33 H33           -1.1062    -2.8078    -1.7533 H       
  34 H34            3.4551    -2.2145     0.7739 H       
  35 H35            2.6326    -0.7247     0.2521 H       
  36 H36            2.2880    -0.0333     2.5562 H       
  37 H37            2.8901    -1.5945     3.1631 H       
  38 H38            4.0051    -0.4606     2.3635 H       
@<TRIPOS>BOND
   1    1    7 1
   2    1   22 1
   3    1   23 1
   4    1   24 1
   5    2    8 2
   6    2   25 1
   7    3    4 1
   8    3    8 1
   9    3   26 1
  10    4    9 1
  11    4   12 1
  12    4    5 1
  13    5    6 1
  14    5   20 1
  15    5   27 1
  16    6    7 am
  17    6   10 2
  18    6   11 2
  19    7    8 1
  20    9   28 1
  21    9   29 1
  22    9   30 1
  23   12   13 ar
  24   12   17 ar
  25   13   14 ar
  26   13   18 1
  27   14   15 ar
  28   14   31 1
  29   15   16 ar
  30   15   32 1
  31   16   17 ar
  32   16   19 1
  33   17   33 1
  34   20   21 1
  35   20   34 1
  36   20   35 1
  37   21   36 1
  38   21   37 1
  39   21   38 1

#	End of record

