#	Name: ASD01940687
#	Creating user name:	WinNT
#	Creation time:	15. 06. 2019 20:13

#	Modifying user name:	WinNT
#	Modification time:	15. 06. 2019 20:13

#	Program:	/corina/corina34_cracker 3.40 0067  02.08.2006

@<TRIPOS>MOLECULE
ASD01940687
  39   41    0    0    0
SMALL
NO_CHARGES


@<TRIPOS>ATOM
   1 C1             0.4110     0.4257    -1.0119 C.ar    
   2 C2             0.0389    -0.0524     0.2311 C.ar    
   3 C3             0.7522     0.3138     1.3597 C.ar    
   4 C4             1.8428     1.1615     1.2486 C.ar    
   5 C5             2.2209     1.6447     0.0030 C.ar    
   6 C6             1.5011     1.2745    -1.1318 C.ar    
   7 N7             1.8786     1.7588    -2.3914 N.am    
   8 S8             0.7226     2.1083    -3.5246 S.o2    
   9 C9            -0.2714     3.4228    -2.7666 C.3     
  10 O10            1.4577     2.6137    -4.6307 O.2     
  11 O11           -0.0344     0.9107    -3.6338 O.2     
  12 F12            0.3841    -0.1559     2.5718 F       
  13 F13            2.5371     1.5179     2.3514 F       
  14 N14            3.3233     2.5028    -0.1129 N.pl3   
  15 C15            4.5543     2.0042    -0.5477 C.ar    
  16 C16            5.6540     2.8498    -0.6438 C.ar    
  17 C17            4.6834     0.6619    -0.8795 C.ar    
  18 C18            5.9015     0.1719    -1.3091 C.ar    
  19 C19            6.9924     1.0162    -1.4088 C.ar    
  20 C20            6.8693     2.3532    -1.0741 C.ar    
  21 Cl21           5.4999     4.5272    -0.2240 Cl      
  22 I22            8.8376     0.2674    -2.0596 I       
  23 C23           -1.4966     3.8285    -3.6028 C.3     
  24 C24           -2.2714     3.9225    -2.2777 C.3     
  25 C25           -1.2619     2.9127    -1.7067 C.3     
  26 H26           -0.1452     0.1343    -1.8907 H       
  27 H27           -0.8106    -0.7130     0.3218 H       
  28 H28            2.8169     1.8893    -2.5996 H       
  29 H29            0.3294     4.2690    -2.4334 H       
  30 H30            3.2317     3.4427     0.1088 H       
  31 H31            3.8324     0.0015    -0.8014 H       
  32 H32            6.0022    -0.8720    -1.5672 H       
  33 H33            7.7230     3.0100    -1.1534 H       
  34 H34           -1.3814     4.7863    -4.1100 H       
  35 H35           -1.8553     3.0390    -4.2632 H       
  36 H36           -2.2183     4.9054    -1.8096 H       
  37 H37           -3.2888     3.5359    -2.3385 H       
  38 H38           -1.5564     1.8729    -1.8488 H       
  39 H39           -0.9571     3.1313    -0.6832 H       
@<TRIPOS>BOND
   1    1    2 ar
   2    1    6 ar
   3    1   26 1
   4    2    3 ar
   5    2   27 1
   6    3    4 ar
   7    3   12 1
   8    4    5 ar
   9    4   13 1
  10    5    6 ar
  11    5   14 1
  12    6    7 1
  13    7    8 am
  14    7   28 1
  15    8    9 1
  16    8   10 2
  17    8   11 2
  18    9   23 1
  19    9   25 1
  20    9   29 1
  21   14   15 1
  22   14   30 1
  23   15   16 ar
  24   15   17 ar
  25   16   21 1
  26   16   20 ar
  27   17   18 ar
  28   17   31 1
  29   18   19 ar
  30   18   32 1
  31   19   20 ar
  32   19   22 1
  33   20   33 1
  34   23   24 1
  35   23   34 1
  36   23   35 1
  37   24   25 1
  38   24   36 1
  39   24   37 1
  40   25   38 1
  41   25   39 1

#	End of record

