#	Name: ASD01885587
#	Creating user name:	WinNT
#	Creation time:	15. 06. 2019 19:49

#	Modifying user name:	WinNT
#	Modification time:	15. 06. 2019 19:49

#	Program:	/corina/corina34_cracker 3.40 0067  02.08.2006

@<TRIPOS>MOLECULE
ASD01885587
  48   51    0    0    0
SMALL
NO_CHARGES


@<TRIPOS>ATOM
   1 C1            -0.0168     1.3905     0.0097 C.ar    
   2 C2             0.0021    -0.0041     0.0020 C.ar    
   3 C3            -1.1828    -0.7093     0.0100 C.ar    
   4 C4            -2.3960    -0.0324     0.0253 C.ar    
   5 C5            -2.4189     1.3600     0.0330 C.ar    
   6 C6            -1.2360     2.0696     0.0308 C.ar    
   7 C7             1.2551     2.1496     0.0016 C.2     
   8 N8            -3.5945    -0.7494     0.0324 N.pl3   
   9 C9             2.1445     2.0665     1.1007 C.2     
  10 C10            3.2996     2.7576     1.0915 C.2     
  11 N11            3.6342     3.5467     0.0288 N.pl3   
  12 C12            2.7992     3.6542    -1.0572 C.2     
  13 C13            1.5884     2.9417    -1.0813 C.2     
  14 C14            4.7078     4.3373    -0.2484 C.2     
  15 N15            4.5095     4.8728    -1.4251 N.2     
  16 N16            3.3864     4.4772    -1.9126 N.2     
  17 C17            5.9058     4.5561     0.6393 C.3     
  18 C18            6.9757     3.5103     0.3191 C.3     
  19 C19           -3.5718    -2.2142     0.0238 C.3     
  20 C20           -3.4247    -2.7304     1.4566 C.3     
  21 C21           -4.8767    -2.7411    -0.5766 C.3     
  22 C22            8.3221     3.6349     1.0350 C.3     
  23 C23            7.3489     2.5202     1.4242 C.3     
  24 F24           -3.5998     2.0160     0.0478 F       
  25 C25            0.6615     3.0487    -2.2647 C.3     
  26 F26           -0.1611     4.1701    -2.1129 F       
  27 F27            1.4145     3.1779    -3.4366 F       
  28 F28           -0.1294     1.8974    -2.3431 F       
  29 H29            0.9445    -0.5314    -0.0105 H       
  30 H30           -1.1678    -1.7892     0.0041 H       
  31 H31           -1.2532     3.1495     0.0368 H       
  32 H32           -4.4419    -0.2776     0.0431 H       
  33 H33            1.8949     1.4468     1.9493 H       
  34 H34            3.9699     2.6872     1.9355 H       
  35 H35            6.3094     5.5537     0.4656 H       
  36 H36            5.6066     4.4619     1.6832 H       
  37 H37            6.9837     3.1452    -0.7079 H       
  38 H38           -2.7300    -2.5611    -0.5755 H       
  39 H39           -4.2664    -2.3836     2.0560 H       
  40 H40           -3.4077    -3.8203     1.4502 H       
  41 H41           -2.4950    -2.3551     1.8844 H       
  42 H42           -4.9815    -2.3733    -1.5973 H       
  43 H43           -4.8598    -3.8309    -0.5830 H       
  44 H44           -5.7185    -2.3942     0.0228 H       
  45 H45            9.2158     3.3514     0.4792 H       
  46 H46            8.4457     4.4619     1.7342 H       
  47 H47            6.8323     2.6140     2.3794 H       
  48 H48            7.6024     1.5034     1.1244 H       
@<TRIPOS>BOND
   1    1    2 ar
   2    1    7 1
   3    1    6 ar
   4    2    3 ar
   5    2   29 1
   6    3    4 ar
   7    3   30 1
   8    4    5 ar
   9    4    8 1
  10    5    6 ar
  11    5   24 1
  12    6   31 1
  13    7    9 1
  14    7   13 2
  15    8   19 1
  16    8   32 1
  17    9   10 2
  18    9   33 1
  19   10   11 1
  20   10   34 1
  21   11   12 1
  22   11   14 1
  23   12   13 1
  24   12   16 2
  25   13   25 1
  26   14   15 2
  27   14   17 1
  28   15   16 1
  29   17   18 1
  30   17   35 1
  31   17   36 1
  32   18   22 1
  33   18   23 1
  34   18   37 1
  35   19   20 1
  36   19   21 1
  37   19   38 1
  38   20   39 1
  39   20   40 1
  40   20   41 1
  41   21   42 1
  42   21   43 1
  43   21   44 1
  44   22   23 1
  45   22   45 1
  46   22   46 1
  47   23   47 1
  48   23   48 1
  49   25   26 1
  50   25   27 1
  51   25   28 1

#	End of record

