#	Name: ASD06170048
#	Creating user name:	WinNT
#	Creation time:	15. 06. 2019 21:05

#	Modifying user name:	WinNT
#	Modification time:	15. 06. 2019 21:05

#	Program:	/corina/corina34_cracker 3.40 0067  02.08.2006

@<TRIPOS>MOLECULE
ASD06170048
  66   70    0    0    0
SMALL
NO_CHARGES


@<TRIPOS>ATOM
   1 N1             0.1119    -2.1686     0.0206 N.pl3   
   2 N2             0.0328    -0.7734    -0.0199 N.am    
   3 C3             1.2854    -0.2727    -0.0465 C.2     
   4 C4             2.1977    -1.4274    -0.0209 C.2     
   5 C5             1.4016    -2.5554     0.0199 C.2     
   6 C6             3.6647    -1.3880    -0.0363 C.2     
   7 O7             4.3015    -2.4246    -0.0120 O.2     
   8 N8             4.3066    -0.2036    -0.0773 N.am    
   9 O9             1.5991     0.9023    -0.0845 O.2     
  10 C10            1.8937    -3.9792     0.0582 C.3     
  11 C11           -1.0380    -3.0753     0.0638 C.3     
  12 C12            5.6972    -0.1601     0.0239 C.ar    
  13 C13            6.3604     1.0519    -0.1329 C.ar    
  14 C14            7.7393     1.0838    -0.0302 C.ar    
  15 C15            8.4131    -0.1076     0.2279 C.ar    
  16 C16            7.6858    -1.2780     0.3725 C.ar    
  17 N17            6.3702    -1.2717     0.2733 N.ar    
  18 O18            9.7684    -0.1219     0.3362 O.3     
  19 N19           11.4523     1.8157     3.5645 N.ar    
  20 C20           10.1485     1.6980     3.4719 C.ar    
  21 C21            9.5455     1.0525     2.3998 C.ar    
  22 C22           10.3291     0.5140     1.3944 C.ar    
  23 C23           11.7316     0.6467     1.5045 C.ar    
  24 C24           12.5909     0.1272     0.5248 C.ar    
  25 C25           13.9408     0.2743     0.6634 C.ar    
  26 C26           14.4770     0.9394     1.7753 C.ar    
  27 C27           13.6636     1.4543     2.7431 C.ar    
  28 C28           12.2701     1.3190     2.6287 C.ar    
  29 O29           15.8244     1.0728     1.8911 O.3     
  30 C30           16.3114     1.7600     3.0456 C.3     
  31 O31           14.7739    -0.2295    -0.2859 O.3     
  32 C32           14.1665    -0.8966    -1.3941 C.3     
  33 C33           -1.2031     0.0132    -0.0316 C.3     
  34 C34           -1.5471     0.4292     1.3754 C.ar    
  35 C35           -1.0655     1.6224     1.8807 C.ar    
  36 C36           -1.3811     2.0039     3.1713 C.ar    
  37 C37           -2.1785     1.1925     3.9566 C.ar    
  38 C38           -2.6608    -0.0003     3.4510 C.ar    
  39 C39           -2.3488    -0.3798     2.1588 C.ar    
  40 H40            3.8016     0.6185    -0.1771 H       
  41 H41            2.0025    -4.3535    -0.9597 H       
  42 H42            2.8584    -4.0168     0.5642 H       
  43 H43            1.1761    -4.5973     0.5978 H       
  44 H44           -1.3376    -3.3308    -0.9526 H       
  45 H45           -0.7648    -3.9834     0.6012 H       
  46 H46           -1.8673    -2.5863     0.5749 H       
  47 H47            5.8058     1.9568    -0.3326 H       
  48 H48            8.2809     2.0107    -0.1477 H       
  49 H49            8.2015    -2.2056     0.5723 H       
  50 H50            9.5271     2.1144     4.2509 H       
  51 H51            8.4697     0.9706     2.3515 H       
  52 H52           12.1864    -0.3868    -0.3346 H       
  53 H53           14.0901     1.9640     3.5944 H       
  54 H54           15.9909     1.2329     3.9442 H       
  55 H55           17.4003     1.7961     3.0144 H       
  56 H56           15.9144     2.7750     3.0586 H       
  57 H57           13.5090    -0.2038    -1.9193 H       
  58 H58           14.9412    -1.2491    -2.0750 H       
  59 H59           13.5860    -1.7457    -1.0333 H       
  60 H60           -1.0632     0.9006    -0.6489 H       
  61 H61           -2.0137    -0.5898    -0.4407 H       
  62 H62           -0.4425     2.2563     1.2672 H       
  63 H63           -1.0043     2.9358     3.5663 H       
  64 H64           -2.4244     1.4902     4.9652 H       
  65 H65           -3.2835    -0.6344     4.0646 H       
  66 H66           -2.7287    -1.3099     1.7626 H       
@<TRIPOS>BOND
   1    1    2 1
   2    1    5 1
   3    1   11 1
   4    2    3 am
   5    2   33 1
   6    3    4 1
   7    3    9 2
   8    4    5 2
   9    4    6 1
  10    5   10 1
  11    6    7 2
  12    6    8 am
  13    8   12 1
  14    8   40 1
  15   10   41 1
  16   10   42 1
  17   10   43 1
  18   11   44 1
  19   11   45 1
  20   11   46 1
  21   12   13 ar
  22   12   17 ar
  23   13   14 ar
  24   13   47 1
  25   14   15 ar
  26   14   48 1
  27   15   16 ar
  28   15   18 1
  29   16   17 ar
  30   16   49 1
  31   18   22 1
  32   19   20 ar
  33   19   28 ar
  34   20   21 ar
  35   20   50 1
  36   21   22 ar
  37   21   51 1
  38   22   23 ar
  39   23   24 ar
  40   23   28 ar
  41   24   25 ar
  42   24   52 1
  43   25   26 ar
  44   25   31 1
  45   26   27 ar
  46   26   29 1
  47   27   28 ar
  48   27   53 1
  49   29   30 1
  50   30   54 1
  51   30   55 1
  52   30   56 1
  53   31   32 1
  54   32   57 1
  55   32   58 1
  56   32   59 1
  57   33   34 1
  58   33   60 1
  59   33   61 1
  60   34   35 ar
  61   34   39 ar
  62   35   36 ar
  63   35   62 1
  64   36   37 ar
  65   36   63 1
  66   37   38 ar
  67   37   64 1
  68   38   39 ar
  69   38   65 1
  70   39   66 1

#	End of record

