#	Name: ASD01152240
#	Creating user name:	WinNT
#	Creation time:	15. 06. 2019 19:05

#	Modifying user name:	WinNT
#	Modification time:	15. 06. 2019 19:05

#	Program:	/corina/corina34_cracker 3.40 0067  02.08.2006

@<TRIPOS>MOLECULE
ASD01152240
  40   42    0    0    0
SMALL
NO_CHARGES


@<TRIPOS>ATOM
   1 N1             0.0402     1.3037     0.5000 N.2     
   2 N2             0.0021    -0.0041     0.0020 N.am    
   3 C3             1.1098    -0.5915    -0.4836 C.2     
   4 N4             2.2885     0.0581    -0.5060 N.am    
   5 C5             2.3737     1.3200    -0.0362 C.2     
   6 C6             1.1654     1.9685     0.4955 C.2     
   7 O7             1.0458    -1.7288    -0.9095 O.2     
   8 O8             3.4359     1.9137    -0.0523 O.2     
   9 O9             1.2183     3.2385     0.9749 O.3     
  10 C10            0.0002     3.7949     1.4737 C.3     
  11 C11            3.4801    -0.6059    -1.0403 C.3     
  12 C12            3.5877    -0.3318    -2.5183 C.ar    
  13 C13            4.2857     0.7739    -2.9669 C.ar    
  14 C14            4.3847     1.0257    -4.3223 C.ar    
  15 C15            3.7850     0.1711    -5.2301 C.ar    
  16 C16            3.0865    -0.9353    -4.7804 C.ar    
  17 C17            2.9930    -1.1892    -3.4250 C.ar    
  18 Cl18           3.9084     0.4871    -6.9326 Cl      
  19 C19           -1.2059    -0.7102     0.0102 C.ar    
  20 C20           -1.2511    -2.0037     0.5116 C.ar    
  21 C21           -2.4511    -2.7002     0.5183 C.ar    
  22 C22           -3.6034    -2.1010     0.0234 C.ar    
  23 C23           -3.5548    -0.8135    -0.4749 C.ar    
  24 C24           -2.3625    -0.1152    -0.4782 C.ar    
  25 N25           -2.5009    -4.0023     1.0215 N.pl3   
  26 H26           -0.7438     3.8131     0.6774 H       
  27 H27           -0.3664     3.1851     2.2995 H       
  28 H28            0.1817     4.8107     1.8248 H       
  29 H29            4.3667    -0.2236    -0.5344 H       
  30 H30            3.4023    -1.6804    -0.8748 H       
  31 H31            4.7535     1.4411    -2.2582 H       
  32 H32            4.9298     1.8898    -4.6727 H       
  33 H33            2.6182    -1.6028    -5.4886 H       
  34 H34            2.4515    -2.0553    -3.0741 H       
  35 H35           -0.3542    -2.4671     0.8953 H       
  36 H36           -4.5377    -2.6428     0.0280 H       
  37 H37           -4.4516    -0.3504    -0.8592 H       
  38 H38           -2.3289     0.8928    -0.8643 H       
  39 H39           -1.6963    -4.4200     1.3665 H       
  40 H40           -3.3401    -4.4887     1.0260 H       
@<TRIPOS>BOND
   1    1    2 1
   2    1    6 2
   3    2    3 am
   4    2   19 1
   5    3    4 am
   6    3    7 2
   7    4    5 am
   8    4   11 1
   9    5    6 1
  10    5    8 2
  11    6    9 1
  12    9   10 1
  13   10   26 1
  14   10   27 1
  15   10   28 1
  16   11   12 1
  17   11   29 1
  18   11   30 1
  19   12   13 ar
  20   12   17 ar
  21   13   14 ar
  22   13   31 1
  23   14   15 ar
  24   14   32 1
  25   15   16 ar
  26   15   18 1
  27   16   17 ar
  28   16   33 1
  29   17   34 1
  30   19   20 ar
  31   19   24 ar
  32   20   21 ar
  33   20   35 1
  34   21   22 ar
  35   21   25 1
  36   22   23 ar
  37   22   36 1
  38   23   24 ar
  39   23   37 1
  40   24   38 1
  41   25   39 1
  42   25   40 1

#	End of record

