#	Name: ASD05060112
#	Creating user name:	WinNT
#	Creation time:	15. 06. 2019 20:56

#	Modifying user name:	WinNT
#	Modification time:	15. 06. 2019 20:56

#	Program:	/corina/corina34_cracker 3.40 0067  02.08.2006

@<TRIPOS>MOLECULE
ASD05060112
  44   46    0    0    0
SMALL
NO_CHARGES


@<TRIPOS>ATOM
   1 C1            -0.0167     1.3806     0.0096 C.ar    
   2 C2             0.0021    -0.0041     0.0020 C.ar    
   3 C3             1.2108    -0.6788    -0.0131 C.ar    
   4 C4             2.3973     0.0301    -0.0207 C.ar    
   5 C5             2.3774     1.4122    -0.0126 C.ar    
   6 C6             1.1707     2.0872     0.0021 C.ar    
   7 C7             1.1506     3.5940     0.0104 C.3     
   8 N8             1.1573     4.0749     1.3942 N.pl3   
   9 C9             2.4292     4.3323     2.0741 C.3     
  10 C10           -0.0515     4.2883     2.0667 C.ar    
  11 C11            2.8429     5.7625     1.8410 C.ar    
  12 C12            2.4387     6.7508     2.7194 C.ar    
  13 C13            2.8178     8.0629     2.5072 C.ar    
  14 C14            3.6012     8.3887     1.4160 C.ar    
  15 C15            4.0065     7.4000     0.5358 C.ar    
  16 C16            3.6309     6.0849     0.7527 C.ar    
  17 C17           -1.2585     4.0433     1.4195 C.ar    
  18 C18           -2.4553     4.2514     2.0744 C.ar    
  19 C19           -2.4631     4.7068     3.3843 C.ar    
  20 C20           -1.2516     4.9555     4.0433 C.ar    
  21 C21           -0.0432     4.7372     3.3757 C.ar    
  22 O22           -3.6413     4.9116     4.0263 O.3     
  23 C23           -1.2516     5.4397     5.4356 C.2     
  24 O24           -2.3038     5.6243     6.0146 O.2     
  25 O25           -0.0847     5.6778     6.0661 O.3     
  26 F26           -1.1583    -0.6959     0.0098 F       
  27 F27            4.7719     7.7173    -0.5313 F       
  28 H28           -0.9591     1.9080     0.0170 H       
  29 H29            1.2267    -1.7587    -0.0187 H       
  30 H30            3.3404    -0.4960    -0.0325 H       
  31 H31            3.3050     1.9653    -0.0178 H       
  32 H32            2.0307     3.9720    -0.5099 H       
  33 H33            0.2510     3.9481    -0.4930 H       
  34 H34            2.3113     4.1578     3.1436 H       
  35 H35            3.1941     3.6638     1.6790 H       
  36 H36            1.8259     6.4973     3.5719 H       
  37 H37            2.5014     8.8341     3.1940 H       
  38 H38            3.8967     9.4141     1.2500 H       
  39 H39            3.9499     5.3122     0.0689 H       
  40 H40           -1.2588     3.6889     0.3993 H       
  41 H41           -3.3882     4.0594     1.5654 H       
  42 H42            0.8944     4.9225     3.8786 H       
  43 H43           -3.9696     4.1367     4.5025 H       
  44 H44           -0.1353     5.9943     6.9785 H       
@<TRIPOS>BOND
   1    1    2 ar
   2    1    6 ar
   3    1   28 1
   4    2    3 ar
   5    2   26 1
   6    3    4 ar
   7    3   29 1
   8    4    5 ar
   9    4   30 1
  10    5    6 ar
  11    5   31 1
  12    6    7 1
  13    7    8 1
  14    7   32 1
  15    7   33 1
  16    8    9 1
  17    8   10 1
  18    9   11 1
  19    9   34 1
  20    9   35 1
  21   10   17 ar
  22   10   21 ar
  23   11   12 ar
  24   11   16 ar
  25   12   13 ar
  26   12   36 1
  27   13   14 ar
  28   13   37 1
  29   14   15 ar
  30   14   38 1
  31   15   16 ar
  32   15   27 1
  33   16   39 1
  34   17   18 ar
  35   17   40 1
  36   18   19 ar
  37   18   41 1
  38   19   20 ar
  39   19   22 1
  40   20   21 ar
  41   20   23 1
  42   21   42 1
  43   22   43 1
  44   23   24 2
  45   23   25 1
  46   25   44 1

#	End of record

