#	Name: ASD04882357
#	Creating user name:	WinNT
#	Creation time:	15. 06. 2019 20:54

#	Modifying user name:	WinNT
#	Modification time:	15. 06. 2019 20:54

#	Program:	/corina/corina34_cracker 3.40 0067  02.08.2006

@<TRIPOS>MOLECULE
ASD04882357
  82   88    0    0    0
SMALL
NO_CHARGES


@<TRIPOS>ATOM
   1 N1            -0.0169     1.3970     0.0097 N.am    
   2 C2             0.1094     0.0022    -0.0339 C.ar    
   3 C3            -1.0280    -0.8060     0.0461 C.ar    
   4 C4            -0.9042    -2.1900     0.0030 C.ar    
   5 C5             0.3392    -2.7697    -0.1185 C.ar    
   6 C6             1.4808    -1.9674    -0.1985 C.ar    
   7 C7             1.3585    -0.5755    -0.1616 C.ar    
   8 N8            -2.2871    -0.2241     0.1695 N.3     
   9 C9            -3.1532    -0.5990    -0.9569 C.3     
  10 C10           -2.9099    -0.5831     1.4512 C.3     
  11 C11           -4.2534     0.1380     1.5823 C.3     
  12 N12           -5.1196    -0.2369     0.4559 N.3     
  13 C13           -4.4968     0.1221    -0.8259 C.3     
  14 C14            2.8126    -2.5886    -0.3281 C.2     
  15 O15            3.8053    -1.8898    -0.3976 O.2     
  16 C16            0.9212     2.1768    -0.5632 C.2     
  17 C17            0.7444     3.6398    -0.5950 C.2     
  18 O18            1.9137     1.6734    -1.0539 O.2     
  19 N19            2.9290    -3.9307    -0.3695 N.am    
  20 C20           -6.3825     0.3467     0.5797 C.ar    
  21 C21           -6.5091     1.7292     0.6234 C.ar    
  22 C22           -7.5154    -0.4541     0.6536 C.ar    
  23 C23           -8.7624     0.1262     0.7760 C.ar    
  24 C24           -8.8844     1.5030     0.8245 C.ar    
  25 C25           -7.7595     2.3031     0.7459 C.ar    
  26 C26            1.6029     4.5465    -1.1366 C.2     
  27 N27           -0.3107     4.3377    -0.0937 N.2     
  28 C28           -0.1082     5.6027    -0.3108 C.2     
  29 O29            1.0597     5.7600    -0.9498 O.3     
  30 C30            4.2515    -4.5476    -0.4983 C.3     
  31 C31            4.1040    -6.0703    -0.5210 C.3     
  32 C32            5.4852    -6.7146    -0.6555 C.3     
  33 C33           -7.3835    -1.9543     0.5998 C.3     
  34 C34           -1.0408     6.7168     0.0892 C.3     
  35 C35           -0.4996     7.7825     1.0443 C.3     
  36 C36           -0.7273     8.1214    -0.4302 C.3     
  37 N37            5.3439    -8.1726    -0.6773 N.am    
  38 C38            5.1551    -9.0227    -1.8899 C.3     
  39 C39            6.0002   -10.2855    -1.4806 C.3     
  40 C40            5.1867   -10.4262    -0.1394 C.3     
  41 C41            5.3667    -8.9982     0.4024 C.2     
  42 C42            3.7393    -9.5921    -1.7276 C.2     
  43 C43            3.7568   -10.4213    -0.7000 C.2     
  44 O44            5.4961    -8.6725     1.5635 O.2     
  45 H45           -0.7816     1.8012     0.4487 H       
  46 H46           -1.7849    -2.8119     0.0654 H       
  47 H47            0.4321    -3.8452    -0.1517 H       
  48 H48            2.2388     0.0470    -0.2236 H       
  49 H49           -2.6761    -0.3116    -1.8939 H       
  50 H50           -3.3165    -1.6767    -0.9471 H       
  51 H51           -3.0703    -1.6606     1.4884 H       
  52 H52           -2.2553    -0.2842     2.2700 H       
  53 H53           -4.7305    -0.1494     2.5192 H       
  54 H54           -4.0902     1.2157     1.5725 H       
  55 H55           -4.3364     1.1996    -0.8630 H       
  56 H56           -5.1514    -0.1768    -1.6446 H       
  57 H57            2.1371    -4.4881    -0.3141 H       
  58 H58           -5.6308     2.3547     0.5620 H       
  59 H59           -9.6434    -0.4958     0.8335 H       
  60 H60           -9.8610     1.9543     0.9196 H       
  61 H61           -7.8583     3.3779     0.7841 H       
  62 H62            2.5426     4.3309    -1.6234 H       
  63 H63            4.7195    -4.2140    -1.4245 H       
  64 H64            4.8727    -4.2554     0.3484 H       
  65 H65            3.6361    -6.4039     0.4052 H       
  66 H66            3.4828    -6.3625    -1.3677 H       
  67 H67            5.9531    -6.3810    -1.5817 H       
  68 H68            6.1064    -6.4224     0.1912 H       
  69 H69           -7.2643    -2.3451     1.6104 H       
  70 H70           -8.2787    -2.3818     0.1482 H       
  71 H71           -6.5120    -2.2213     0.0020 H       
  72 H72           -2.0902     6.4389     0.1878 H       
  73 H73           -1.1929     8.2060     1.7710 H       
  74 H74            0.5311     7.6778     1.3833 H       
  75 H75            0.1535     8.2396    -1.0613 H       
  76 H76           -1.5705     8.7678    -0.6736 H       
  77 H77            5.3968    -8.5607    -2.8471 H       
  78 H78            5.8569   -11.1297    -2.1551 H       
  79 H79            7.0534   -10.0572    -1.3169 H       
  80 H80            5.4633   -11.2429     0.5273 H       
  81 H81            2.8832    -9.3569    -2.3425 H       
  82 H82            2.9201   -10.9908    -0.3233 H       
@<TRIPOS>BOND
   1    1    2 1
   2    1   16 am
   3    1   45 1
   4    2    3 ar
   5    2    7 ar
   6    3    4 ar
   7    3    8 1
   8    4    5 ar
   9    4   46 1
  10    5    6 ar
  11    5   47 1
  12    6    7 ar
  13    6   14 1
  14    7   48 1
  15    8    9 1
  16    8   10 1
  17    9   13 1
  18    9   49 1
  19    9   50 1
  20   10   11 1
  21   10   51 1
  22   10   52 1
  23   11   12 1
  24   11   53 1
  25   11   54 1
  26   12   13 1
  27   12   20 1
  28   13   55 1
  29   13   56 1
  30   14   15 2
  31   14   19 am
  32   16   18 2
  33   16   17 1
  34   17   26 2
  35   17   27 1
  36   19   30 1
  37   19   57 1
  38   20   21 ar
  39   20   22 ar
  40   21   25 ar
  41   21   58 1
  42   22   23 ar
  43   22   33 1
  44   23   24 ar
  45   23   59 1
  46   24   25 ar
  47   24   60 1
  48   25   61 1
  49   26   29 1
  50   26   62 1
  51   27   28 2
  52   28   29 1
  53   28   34 1
  54   30   31 1
  55   30   63 1
  56   30   64 1
  57   31   32 1
  58   31   65 1
  59   31   66 1
  60   32   37 1
  61   32   67 1
  62   32   68 1
  63   33   69 1
  64   33   70 1
  65   33   71 1
  66   34   35 1
  67   34   36 1
  68   34   72 1
  69   35   36 1
  70   35   73 1
  71   35   74 1
  72   36   75 1
  73   36   76 1
  74   37   38 1
  75   37   41 am
  76   38   39 1
  77   38   42 1
  78   38   77 1
  79   39   40 1
  80   39   78 1
  81   39   79 1
  82   40   41 1
  83   40   43 1
  84   40   80 1
  85   41   44 2
  86   42   43 2
  87   42   81 1
  88   43   82 1

#	End of record

