#	Name: ASD04882063
#	Creating user name:	WinNT
#	Creation time:	15. 06. 2019 20:54

#	Modifying user name:	WinNT
#	Modification time:	15. 06. 2019 20:54

#	Program:	/corina/corina34_cracker 3.40 0067  02.08.2006

@<TRIPOS>MOLECULE
ASD04882063
  75   79    0    0    0
SMALL
NO_CHARGES


@<TRIPOS>ATOM
   1 N1            -0.1362     1.5550    -0.0364 N.am    
   2 C2            -0.0763     0.1554    -0.0458 C.ar    
   3 C3            -1.2526    -0.5955     0.0296 C.ar    
   4 C4            -1.1946    -1.9845     0.0209 C.ar    
   5 C5             0.0215    -2.6255    -0.0625 C.ar    
   6 C6             1.2017    -1.8806    -0.1381 C.ar    
   7 C7             1.1458    -0.4840    -0.1353 C.ar    
   8 N8            -2.4844     0.0484     0.1140 N.3     
   9 C9            -2.6118     0.7772     1.3837 C.3     
  10 C10           -3.5898    -0.9050    -0.0559 C.3     
  11 C11           -4.9200    -0.1483    -0.0362 C.3     
  12 N12           -5.0474     0.5805     1.2335 N.3     
  13 C13           -3.9420     1.5339     1.4033 C.3     
  14 C14            0.8455     2.2676     0.5510 C.2     
  15 O15            1.7295     1.6967     1.1625 O.2     
  16 C16            0.8484     3.7307     0.4533 C.2     
  17 O17           -0.0671     4.4841    -0.1904 O.3     
  18 C18            1.7751     4.5697     1.0030 C.2     
  19 C19            1.3897     5.8756     0.6618 C.2     
  20 C20            0.2571     5.7780    -0.0687 C.2     
  21 C21            2.5043    -2.5675    -0.2269 C.2     
  22 N22            2.5568    -3.9142    -0.2350 N.am    
  23 O23            3.5306    -1.9186    -0.2926 O.2     
  24 C24           -6.2829     1.2264     1.3181 C.ar    
  25 C25           -6.6349     2.1820     0.3737 C.ar    
  26 C26           -7.8577     2.8185     0.4601 C.ar    
  27 C27           -8.7308     2.5056     1.4856 C.ar    
  28 C28           -8.3834     1.5545     2.4277 C.ar    
  29 C29           -7.1649     0.9103     2.3440 C.ar    
  30 C30           -6.7875    -0.1262     3.3708 C.3     
  31 C31            3.8504    -4.5963    -0.3231 C.3     
  32 C32            3.7330    -5.9932     0.2910 C.3     
  33 C33            4.2647    -4.7159    -1.7915 C.3     
  34 C34            5.6334    -5.3985    -1.8777 C.3     
  35 N35            5.5685    -6.6804    -1.1627 N.am    
  36 C36            5.0957    -6.6902     0.2284 C.3     
  37 S37            6.0190    -8.0875    -1.9107 S.o2    
  38 O38            5.2834    -9.0962    -1.2319 O.2     
  39 O39            5.8091    -7.8324    -3.2928 O.2     
  40 C40            7.7907    -8.2426    -1.5539 C.3     
  41 H41           -0.8822     2.0114    -0.4562 H       
  42 H42           -2.1052    -2.5622     0.0800 H       
  43 H43            0.0633    -3.7047    -0.0690 H       
  44 H44            2.0561     0.0942    -0.1940 H       
  45 H45           -2.5831     0.0706     2.2131 H       
  46 H46           -1.7890     1.4856     1.4805 H       
  47 H47           -3.4801    -1.4230    -1.0086 H       
  48 H48           -3.5722    -1.6307     0.7572 H       
  49 H49           -4.9487     0.5583    -0.8656 H       
  50 H50           -5.7428    -0.8567    -0.1330 H       
  51 H51           -4.0517     2.0519     2.3561 H       
  52 H52           -3.9596     2.2596     0.5903 H       
  53 H53            2.6372     4.2839     1.5873 H       
  54 H54            1.9007     6.7872     0.9343 H       
  55 H55           -0.2955     6.6067    -0.4862 H       
  56 H56            1.7382    -4.4318    -0.1825 H       
  57 H57           -5.9532     2.4273    -0.4272 H       
  58 H58           -8.1321     3.5616    -0.2740 H       
  59 H59           -9.6860     3.0053     1.5512 H       
  60 H60           -9.0675     1.3128     3.2277 H       
  61 H61           -7.1234    -1.1078     3.0365 H       
  62 H62           -5.7048    -0.1359     3.4962 H       
  63 H63           -7.2614     0.1154     4.3222 H       
  64 H64            4.6012    -4.0226     0.2203 H       
  65 H65            3.4152    -5.9082     1.3302 H       
  66 H66            3.0004    -6.5758    -0.2675 H       
  67 H67            3.5270    -5.3105    -2.3304 H       
  68 H68            4.3254    -3.7219    -2.2345 H       
  69 H69            5.8884    -5.5754    -2.9226 H       
  70 H70            6.3890    -4.7615    -1.4179 H       
  71 H71            5.8075    -6.1586     0.8600 H       
  72 H72            4.9959    -7.7195     0.5731 H       
  73 H73            7.9415    -8.2888    -0.4753 H       
  74 H74            8.1757    -9.1528    -2.0138 H       
  75 H75            8.3197    -7.3795    -1.9581 H       
@<TRIPOS>BOND
   1    1    2 1
   2    1   14 am
   3    1   41 1
   4    2    3 ar
   5    2    7 ar
   6    3    4 ar
   7    3    8 1
   8    4    5 ar
   9    4   42 1
  10    5    6 ar
  11    5   43 1
  12    6    7 ar
  13    6   21 1
  14    7   44 1
  15    8    9 1
  16    8   10 1
  17    9   13 1
  18    9   45 1
  19    9   46 1
  20   10   11 1
  21   10   47 1
  22   10   48 1
  23   11   12 1
  24   11   49 1
  25   11   50 1
  26   12   13 1
  27   12   24 1
  28   13   51 1
  29   13   52 1
  30   14   15 2
  31   14   16 1
  32   16   17 1
  33   16   18 2
  34   17   20 1
  35   18   19 1
  36   18   53 1
  37   19   20 2
  38   19   54 1
  39   20   55 1
  40   21   22 am
  41   21   23 2
  42   22   31 1
  43   22   56 1
  44   24   25 ar
  45   24   29 ar
  46   25   26 ar
  47   25   57 1
  48   26   27 ar
  49   26   58 1
  50   27   28 ar
  51   27   59 1
  52   28   29 ar
  53   28   60 1
  54   29   30 1
  55   30   61 1
  56   30   62 1
  57   30   63 1
  58   31   32 1
  59   31   33 1
  60   31   64 1
  61   32   36 1
  62   32   65 1
  63   32   66 1
  64   33   34 1
  65   33   67 1
  66   33   68 1
  67   34   35 1
  68   34   69 1
  69   34   70 1
  70   35   36 1
  71   35   37 am
  72   36   71 1
  73   36   72 1
  74   37   38 2
  75   37   39 2
  76   37   40 1
  77   40   73 1
  78   40   74 1
  79   40   75 1

#	End of record

