#	Name: ASD04590685
#	Creating user name:	WinNT
#	Creation time:	15. 06. 2019 20:51

#	Modifying user name:	WinNT
#	Modification time:	15. 06. 2019 20:51

#	Program:	/corina/corina34_cracker 3.40 0067  02.08.2006

@<TRIPOS>MOLECULE
ASD04590685
  76   81    0    0    0
SMALL
NO_CHARGES


@<TRIPOS>ATOM
   1 N1            -2.6697    -2.9504     0.8400 N.ar    
   2 C2            -1.5404    -2.2606     0.9342 C.ar    
   3 N3            -0.3517    -2.8291     0.8160 N.ar    
   4 C4            -0.2465    -4.1357     0.5949 C.ar    
   5 C5            -1.4272    -4.8957     0.4903 C.ar    
   6 C6            -2.6543    -4.2555     0.6209 C.ar    
   7 N7             0.8212    -4.9853     0.4318 N.pl3   
   8 C8             0.3922    -6.2684     0.2250 C.2     
   9 C9            -0.9999    -6.2835     0.2494 C.2     
  10 N10           -1.6084    -0.8949     1.1645 N.pl3   
  11 C11           -2.8454    -0.2510     1.1792 C.ar    
  12 C12            2.2266    -4.5737     0.4732 C.3     
  13 C13            2.3254    -3.0385     0.5073 C.3     
  14 N14            1.0747    -7.4348     0.0167 N.am    
  15 C15            0.4187    -8.5948    -0.1651 C.2     
  16 C16           -0.9833    -8.6384    -0.1458 C.2     
  17 C17           -1.6920    -7.4911     0.0604 C.2     
  18 C18            3.0451    -2.6723     1.8218 C.3     
  19 C19            3.8516    -3.9451     2.1806 C.3     
  20 C20            2.8896    -5.0868     1.7682 C.3     
  21 N21           -3.9386    -0.9274     0.8656 N.ar    
  22 C22           -5.1297    -0.3592     0.8662 C.ar    
  23 C23           -5.2767     0.9791     1.1984 C.ar    
  24 C24           -4.1472     1.7239     1.5345 C.ar    
  25 C25           -2.9166     1.0931     1.5288 C.ar    
  26 N26           -6.5435     1.5749     1.1959 N.3     
  27 C27           -7.5798     0.6068     0.8125 C.3     
  28 C28           -8.9617     1.2432     0.9963 C.3     
  29 N29           -8.9931     2.5137     0.2561 N.am    
  30 C30           -7.9086     3.4802     0.4862 C.3     
  31 C31           -6.5682     2.7558     0.3225 C.3     
  32 O32            1.0512    -9.6224    -0.3496 O.2     
  33 C33            2.5394    -7.4207    -0.0092 C.3     
  34 O34          -10.0003     3.9538    -1.2787 O.3     
  35 C35          -11.1036     4.1783    -2.1956 C.3     
  36 C36          -12.4246     4.1327    -1.4250 C.3     
  37 C37          -10.9461     5.5490    -2.8570 C.3     
  38 C38          -11.1026     3.0900    -3.2709 C.3     
  39 C39           -9.9891     2.7850    -0.6105 C.2     
  40 O40          -10.8769     1.9748    -0.7886 O.2     
  41 H41           -3.5766    -4.8122     0.5457 H       
  42 H42           -0.7956    -0.3875     1.3153 H       
  43 H43            2.7550    -4.9626    -0.3972 H       
  44 H44            2.9026    -2.6825    -0.3461 H       
  45 H45            1.3278    -2.5997     0.4931 H       
  46 H46           -1.4991    -9.5757    -0.2933 H       
  47 H47           -2.7716    -7.5110     0.0777 H       
  48 H48            3.7155    -1.8269     1.6670 H       
  49 H49            2.3199    -2.4471     2.6038 H       
  50 H50            4.7759    -3.9918     1.6048 H       
  51 H51            4.0591    -3.9822     3.2500 H       
  52 H52            2.1393    -5.2516     2.5415 H       
  53 H53            3.4465    -6.0035     1.5742 H       
  54 H54           -5.9998    -0.9430     0.6047 H       
  55 H55           -4.2318     2.7680     1.7975 H       
  56 H56           -2.0208     1.6397     1.7844 H       
  57 H57           -7.4453     0.3245    -0.2317 H       
  58 H58           -7.5007    -0.2792     1.4424 H       
  59 H59           -9.7280     0.5733     0.6065 H       
  60 H60           -9.1401     1.4317     2.0549 H       
  61 H61           -7.9787     4.2893    -0.2409 H       
  62 H62           -7.9858     3.8837     1.4958 H       
  63 H63           -5.7554     3.4282     0.5970 H       
  64 H64           -6.4478     2.4435    -0.7149 H       
  65 H65            2.9215    -7.4854     1.0096 H       
  66 H66            2.9008    -8.2711    -0.5874 H       
  67 H67            2.8858    -6.4952    -0.4691 H       
  68 H68          -12.4253     4.9081    -0.6589 H       
  69 H69          -13.2528     4.3012    -2.1133 H       
  70 H70          -12.5367     3.1562    -0.9538 H       
  71 H71          -10.0051     5.5815    -3.4061 H       
  72 H72          -11.7743     5.7175    -3.5454 H       
  73 H73          -10.9468     6.3243    -2.0910 H       
  74 H74          -11.2148     2.1135    -2.7997 H       
  75 H75          -11.9308     3.2585    -3.9593 H       
  76 H76          -10.1615     3.1225    -3.8199 H       
@<TRIPOS>BOND
   1    1    2 ar
   2    1    6 ar
   3    2    3 ar
   4    2   10 1
   5    3    4 ar
   6    4    5 ar
   7    4    7 1
   8    5    6 ar
   9    5    9 1
  10    6   41 1
  11    7    8 1
  12    7   12 1
  13    8    9 2
  14    8   14 1
  15    9   17 1
  16   10   11 1
  17   10   42 1
  18   11   21 ar
  19   11   25 ar
  20   12   13 1
  21   12   20 1
  22   12   43 1
  23   13   18 1
  24   13   44 1
  25   13   45 1
  26   14   15 am
  27   14   33 1
  28   15   16 1
  29   15   32 2
  30   16   17 2
  31   16   46 1
  32   17   47 1
  33   18   19 1
  34   18   48 1
  35   18   49 1
  36   19   20 1
  37   19   50 1
  38   19   51 1
  39   20   52 1
  40   20   53 1
  41   21   22 ar
  42   22   23 ar
  43   22   54 1
  44   23   24 ar
  45   23   26 1
  46   24   25 ar
  47   24   55 1
  48   25   56 1
  49   26   27 1
  50   26   31 1
  51   27   28 1
  52   27   57 1
  53   27   58 1
  54   28   29 1
  55   28   59 1
  56   28   60 1
  57   29   30 1
  58   29   39 am
  59   30   31 1
  60   30   61 1
  61   30   62 1
  62   31   63 1
  63   31   64 1
  64   33   65 1
  65   33   66 1
  66   33   67 1
  67   34   35 1
  68   34   39 1
  69   35   36 1
  70   35   37 1
  71   35   38 1
  72   36   68 1
  73   36   69 1
  74   36   70 1
  75   37   71 1
  76   37   72 1
  77   37   73 1
  78   38   74 1
  79   38   75 1
  80   38   76 1
  81   39   40 2

#	End of record

