#	Name: ASD03090782
#	Creating user name:	WinNT
#	Creation time:	15. 06. 2019 20:29

#	Modifying user name:	WinNT
#	Modification time:	15. 06. 2019 20:29

#	Program:	/corina/corina34_cracker 3.40 0067  02.08.2006

@<TRIPOS>MOLECULE
ASD03090782
  58   63    0    0    0
SMALL
NO_CHARGES


@<TRIPOS>ATOM
   1 O1            -0.6752     1.7957     0.7948 O.2     
   2 C2            -0.0185     2.0422    -0.2003 C.2     
   3 C3             1.3237     2.6227    -0.0689 C.2     
   4 C4             2.5191     1.9312    -0.0251 C.2     
   5 C5             2.6524     0.4324    -0.1074 C.3     
   6 N6             3.5452     2.7888     0.1010 N.pl3   
   7 C7             3.0440     4.0725     0.1418 C.ar    
   8 C8             1.6515     4.0414     0.0342 C.ar    
   9 C9             0.9466     5.2454     0.0540 C.ar    
  10 C10            1.6964     6.4067     0.1806 C.ar    
  11 C11            3.0849     6.4163     0.2859 C.ar    
  12 C12            3.7996     5.2422     0.2643 C.ar    
  13 O13            5.1380     5.0643     0.3554 O.3     
  14 C14            5.6796     3.8983    -0.2803 C.3     
  15 C15            5.0010     2.6008     0.1973 C.3     
  16 C16            5.3919     2.3163     1.6489 C.3     
  17 N17            6.8419     2.0957     1.7313 N.3     
  18 C18            7.2313     0.8767     1.0076 C.3     
  19 C19            8.7528     0.7178     1.0684 C.3     
  20 O20            9.1701     0.6920     2.4361 O.3     
  21 C21            8.8077     1.8643     3.1708 C.3     
  22 C22            7.2867     2.0349     3.1312 C.3     
  23 C23           -0.5688     1.7519    -1.5375 C.ar    
  24 C24            0.1129     2.1391    -2.6840 C.ar    
  25 C25           -0.4074     1.8646    -3.9416 C.ar    
  26 C26           -1.5916     1.2133    -4.1022 C.ar    
  27 C27           -2.3351     0.7924    -2.9864 C.ar    
  28 C28           -1.8397     1.0456    -1.6840 C.ar    
  29 C29           -2.5771     0.6276    -0.5698 C.ar    
  30 C30           -3.7637    -0.0186    -0.7511 C.ar    
  31 C31           -4.2535    -0.2696    -2.0306 C.ar    
  32 C32           -3.5596     0.1188    -3.1359 C.ar    
  33 H33            2.7579     0.1338    -1.1504 H       
  34 H34            3.5321     0.1146     0.4523 H       
  35 H35            1.7637    -0.0352     0.3163 H       
  36 H36           -0.1302     5.2725    -0.0257 H       
  37 H37            1.1755     7.3527     0.1980 H       
  38 H38            3.6066     7.3571     0.3816 H       
  39 H39            5.5520     3.9938    -1.3586 H       
  40 H40            6.7450     3.8387    -0.0577 H       
  41 H41            5.3073     1.7693    -0.4375 H       
  42 H42            5.1178     3.1672     2.2724 H       
  43 H43            4.8685     1.4263     1.9983 H       
  44 H44            6.7562     0.0115     1.4698 H       
  45 H45            6.9148     0.9542    -0.0326 H       
  46 H46            9.0411    -0.2143     0.5823 H       
  47 H47            9.2271     1.5566     0.5589 H       
  48 H48            9.1356     1.7614     4.2051 H       
  49 H49            9.2835     2.7364     2.7224 H       
  50 H50            7.0106     2.9577     3.6413 H       
  51 H51            6.8125     1.1881     3.6274 H       
  52 H52            1.0558     2.6584    -2.5964 H       
  53 H53            0.1428     2.1770    -4.8169 H       
  54 H54           -1.9639     1.0183    -5.0971 H       
  55 H55           -2.2079     0.8156     0.4275 H       
  56 H56           -4.3316    -0.3406     0.1092 H       
  57 H57           -5.1961    -0.7836    -2.1479 H       
  58 H58           -3.9518    -0.0826    -4.1218 H       
@<TRIPOS>BOND
   1    1    2 2
   2    2    3 1
   3    2   23 1
   4    3    4 2
   5    3    8 1
   6    4    5 1
   7    4    6 1
   8    5   33 1
   9    5   34 1
  10    5   35 1
  11    6    7 1
  12    6   15 1
  13    7    8 ar
  14    7   12 ar
  15    8    9 ar
  16    9   10 ar
  17    9   36 1
  18   10   11 ar
  19   10   37 1
  20   11   12 ar
  21   11   38 1
  22   12   13 1
  23   13   14 1
  24   14   15 1
  25   14   39 1
  26   14   40 1
  27   15   16 1
  28   15   41 1
  29   16   17 1
  30   16   42 1
  31   16   43 1
  32   17   18 1
  33   17   22 1
  34   18   19 1
  35   18   44 1
  36   18   45 1
  37   19   20 1
  38   19   46 1
  39   19   47 1
  40   20   21 1
  41   21   22 1
  42   21   48 1
  43   21   49 1
  44   22   50 1
  45   22   51 1
  46   23   24 ar
  47   23   28 ar
  48   24   25 ar
  49   24   52 1
  50   25   26 ar
  51   25   53 1
  52   26   27 ar
  53   26   54 1
  54   27   28 ar
  55   27   32 ar
  56   28   29 ar
  57   29   30 ar
  58   29   55 1
  59   30   31 ar
  60   30   56 1
  61   31   32 ar
  62   31   57 1
  63   32   58 1

#	End of record

