#	Name: ASD01811428
#	Creating user name:	WinNT
#	Creation time:	15. 06. 2019 19:26

#	Modifying user name:	WinNT
#	Modification time:	15. 06. 2019 19:26

#	Program:	/corina/corina34_cracker 3.40 0067  02.08.2006

@<TRIPOS>MOLECULE
ASD01811428
  60   63    0    0    0
SMALL
NO_CHARGES


@<TRIPOS>ATOM
   1 N1            -0.0162     1.3436     0.0094 N.am    
   2 C2            -0.2168     0.1141    -0.5051 C.2     
   3 O3             0.6699    -0.4358    -1.1294 O.2     
   4 N4            -1.4004    -0.5057    -0.3276 N.am    
   5 C5            -1.6184    -1.8421    -0.8869 C.3     
   6 C6            -3.0331    -2.3137    -0.5443 C.3     
   7 C7            -3.3047    -3.6531    -1.2321 C.3     
   8 C8            -3.1612    -2.4832     0.9708 C.3     
   9 C9             1.2487     1.9376    -0.0700 C.ar    
  10 C10            1.3616     3.3145    -0.2216 C.ar    
  11 C11            2.6083     3.9055    -0.3010 C.ar    
  12 C12            3.7495     3.1322    -0.2297 C.ar    
  13 C13            3.6465     1.7491    -0.0770 C.ar    
  14 C14            2.3888     1.1533     0.0083 C.ar    
  15 C15            0.1204     4.1657    -0.3003 C.3     
  16 C16            6.9287     0.2485     0.2064 C.2     
  17 C17            8.4229     0.2788     0.4102 C.3     
  18 C18            8.9002     1.7256     0.2257 C.3     
  19 C19            8.0152     2.6614     1.0540 C.3     
  20 C20            6.6126     2.7225     0.4373 C.3     
  21 N21            6.1361     1.3573     0.2208 N.pl3   
  22 N22            4.9384    -0.3909    -0.1361 N.2     
  23 N23            6.1618    -0.7770    -0.0137 N.2     
  24 C24            4.8681     0.9179    -0.0003 C.2     
  25 C25           10.3297     1.8462     0.6873 C.ar    
  26 C26           11.3083     2.2537    -0.2019 C.ar    
  27 C27           12.6188     2.3662     0.2138 C.ar    
  28 C28           12.9566     2.0682     1.5355 C.ar    
  29 C29           11.9638     1.6580     2.4276 C.ar    
  30 C30           10.6565     1.5544     1.9997 C.ar    
  31 C31           14.3150     2.1824     1.9739 C.1     
  32 N32           15.3927     2.2729     2.3218 N.1     
  33 H33           -0.7494     1.8184     0.4312 H       
  34 H34           -2.1077    -0.0671     0.1704 H       
  35 H35           -1.4996    -1.8066    -1.9698 H       
  36 H36           -0.8918    -2.5359    -0.4642 H       
  37 H37           -3.7560    -1.5747    -0.8897 H       
  38 H38           -2.5817    -4.3921    -0.8867 H       
  39 H39           -4.3125    -3.9891    -0.9881 H       
  40 H40           -3.2134    -3.5324    -2.3116 H       
  41 H41           -2.4382    -3.2222     1.3162 H       
  42 H42           -2.9677    -1.5290     1.4608 H       
  43 H43           -4.1690    -2.8192     1.2149 H       
  44 H44            2.6900     4.9759    -0.4195 H       
  45 H45            4.7220     3.5976    -0.2924 H       
  46 H46            2.3031     0.0837     0.1310 H       
  47 H47           -0.1670     4.4824     0.7023 H       
  48 H48            0.3201     5.0432    -0.9153 H       
  49 H49           -0.6894     3.5871    -0.7447 H       
  50 H50            8.6641    -0.0628     1.4167 H       
  51 H51            8.9075    -0.3650    -0.3237 H       
  52 H52            8.8333     1.9992    -0.8273 H       
  53 H53            7.9468     2.2867     2.0753 H       
  54 H54            8.4516     3.6602     1.0628 H       
  55 H55            5.9368     3.2421     1.1166 H       
  56 H56            6.6547     3.2507    -0.5153 H       
  57 H57           11.0457     2.4839    -1.2239 H       
  58 H58           13.3819     2.6837    -0.4814 H       
  59 H59           12.2183     1.4260     3.4512 H       
  60 H60            9.8870     1.2412     2.6897 H       
@<TRIPOS>BOND
   1    1    2 am
   2    1    9 1
   3    1   33 1
   4    2    3 2
   5    2    4 am
   6    4    5 1
   7    4   34 1
   8    5    6 1
   9    5   35 1
  10    5   36 1
  11    6    7 1
  12    6    8 1
  13    6   37 1
  14    7   38 1
  15    7   39 1
  16    7   40 1
  17    8   41 1
  18    8   42 1
  19    8   43 1
  20    9   10 ar
  21    9   14 ar
  22   10   11 ar
  23   10   15 1
  24   11   12 ar
  25   11   44 1
  26   12   13 ar
  27   12   45 1
  28   13   14 ar
  29   13   24 1
  30   14   46 1
  31   15   47 1
  32   15   48 1
  33   15   49 1
  34   16   17 1
  35   16   21 1
  36   16   23 2
  37   17   18 1
  38   17   50 1
  39   17   51 1
  40   18   19 1
  41   18   25 1
  42   18   52 1
  43   19   20 1
  44   19   53 1
  45   19   54 1
  46   20   21 1
  47   20   55 1
  48   20   56 1
  49   21   24 1
  50   22   23 1
  51   22   24 2
  52   25   26 ar
  53   25   30 ar
  54   26   27 ar
  55   26   57 1
  56   27   28 ar
  57   27   58 1
  58   28   29 ar
  59   28   31 1
  60   29   30 ar
  61   29   59 1
  62   30   60 1
  63   31   32 3

#	End of record

