#	Name: ASD01148666
#	Creating user name:	WinNT
#	Creation time:	15. 06. 2019 19:03

#	Modifying user name:	WinNT
#	Modification time:	15. 06. 2019 19:03

#	Program:	/corina/corina34_cracker 3.40 0067  02.08.2006

@<TRIPOS>MOLECULE
ASD01148666
  47   49    0    0    0
SMALL
NO_CHARGES


@<TRIPOS>ATOM
   1 N1            -3.9817    -2.1640    -2.8663 N.am    
   2 N2            -3.4502    -2.1910    -1.5703 N.am    
   3 C3            -4.0307    -3.0776    -0.5588 C.3     
   4 C4            -2.4048    -1.4012    -1.2541 C.2     
   5 C5            -1.7539    -0.5864    -2.2973 C.ar    
   6 C6            -1.1727    -1.2042    -3.4149 C.ar    
   7 C7            -0.5625    -0.4265    -4.3909 C.ar    
   8 C8            -0.5293     0.9480    -4.2597 C.ar    
   9 C9            -1.1026     1.5611    -3.1568 C.ar    
  10 C10           -1.7176     0.8049    -2.1811 C.ar    
  11 O11           -1.9982    -1.3604    -0.1089 O.2     
  12 N12           -1.2070    -2.5900    -3.5448 N.am    
  13 C13           -0.6976    -3.3709    -2.5716 C.2     
  14 O14           -0.1406    -2.8657    -1.6155 O.2     
  15 N15           -0.6636    -7.0249    -2.2416 N.2     
  16 N16           -0.3329    -5.7493    -1.7675 N.pl3   
  17 C17           -0.8151    -4.8336    -2.6656 C.2     
  18 C18           -1.4325    -5.5445    -3.6751 C.2     
  19 C19           -1.3149    -6.8999    -3.3716 C.2     
  20 C20            0.3630    -5.4621    -0.5907 C.ar    
  21 C21            0.7111    -6.4948     0.2736 C.ar    
  22 C22            1.4013    -6.1956     1.4366 C.ar    
  23 C23            1.7198    -4.8696     1.6945 C.ar    
  24 C24            1.3420    -3.8954     0.7909 C.ar    
  25 N25            0.6897    -4.2108    -0.3111 N.ar    
  26 Cl26           0.2858    -8.1360    -0.0999 Cl      
  27 Br27          -1.9853    -8.3245    -4.4190 Br      
  28 Br28          -1.0482     3.4442    -2.9929 Br      
  29 Br29           0.2239    -1.2506    -5.9003 Br      
  30 C30           -5.1478    -1.5311    -3.1033 C.2     
  31 O31           -5.6087    -1.5077    -4.2274 O.2     
  32 O32           -5.8019    -0.9249    -2.0947 O.3     
  33 C33           -7.0517    -0.2629    -2.4232 C.3     
  34 H34           -3.5084    -2.5973    -3.5937 H       
  35 H35           -3.4672    -4.0101    -0.5266 H       
  36 H36           -3.9876    -2.5932     0.4167 H       
  37 H37           -5.0691    -3.2891    -0.8139 H       
  38 H38           -0.0535     1.5486    -5.0208 H       
  39 H39           -2.1668     1.2878    -1.3259 H       
  40 H40           -1.5975    -2.9935    -4.3358 H       
  41 H41           -1.9191    -5.1259    -4.5436 H       
  42 H42            1.6849    -6.9761     2.1271 H       
  43 H43            2.2571    -4.6022     2.5924 H       
  44 H44            1.5878    -2.8622     0.9874 H       
  45 H45           -6.8668     0.5163    -3.1626 H       
  46 H46           -7.7526    -0.9915    -2.8308 H       
  47 H47           -7.4741     0.1833    -1.5229 H       
@<TRIPOS>BOND
   1    1    2 1
   2    1   30 am
   3    1   34 1
   4    2    3 1
   5    2    4 am
   6    3   35 1
   7    3   36 1
   8    3   37 1
   9    4    5 1
  10    4   11 2
  11    5    6 ar
  12    5   10 ar
  13    6    7 ar
  14    6   12 1
  15    7    8 ar
  16    7   29 1
  17    8    9 ar
  18    8   38 1
  19    9   10 ar
  20    9   28 1
  21   10   39 1
  22   12   13 am
  23   12   40 1
  24   13   14 2
  25   13   17 1
  26   15   16 1
  27   15   19 2
  28   16   17 1
  29   16   20 1
  30   17   18 2
  31   18   19 1
  32   18   41 1
  33   19   27 1
  34   20   21 ar
  35   20   25 ar
  36   21   22 ar
  37   21   26 1
  38   22   23 ar
  39   22   42 1
  40   23   24 ar
  41   23   43 1
  42   24   25 ar
  43   24   44 1
  44   30   31 2
  45   30   32 1
  46   32   33 1
  47   33   45 1
  48   33   46 1
  49   33   47 1

#	End of record

