#	Name: ASD01900178
#	Creating user name:	WinNT
#	Creation time:	15. 06. 2019 19:51

#	Modifying user name:	WinNT
#	Modification time:	15. 06. 2019 19:51

#	Program:	/corina/corina34_cracker 3.40 0067  02.08.2006

@<TRIPOS>MOLECULE
ASD01900178
  33   36    0    0    0
SMALL
NO_CHARGES


@<TRIPOS>ATOM
   1 N1            -0.0167     1.3822     0.0096 N.pl3   
   2 S2            -1.1493    -1.1647     0.2928 S.3     
   3 C3             0.1524     0.0116     0.1326 C.2     
   4 N4             1.2952    -0.6054     0.1473 N.2     
   5 C5             1.2688    -1.9220     0.2564 C.2     
   6 C6             2.4207    -2.8789     0.1542 C.2     
   7 C7             2.2785    -4.0596    -0.6031 C.2     
   8 C8             1.0640    -4.3581    -1.4282 C.3     
   9 C9            -0.1381    -4.8024    -0.5769 C.3     
  10 C10           -0.2070    -3.9114     0.6733 C.3     
  11 C11            0.0328    -2.4593     0.4024 C.2     
  12 N12            3.3781    -4.7428    -0.4691 N.2     
  13 N13            4.2669    -4.0028     0.3273 N.pl3   
  14 C14            3.6522    -2.8493     0.6896 C.2     
  15 C15            1.0692     3.4305    -0.6836 C.ar    
  16 C16            1.0972     2.2266     0.0095 C.ar    
  17 C17            2.2515     1.8740     0.7046 C.ar    
  18 C18            3.3291     2.7441     0.6749 C.ar    
  19 C19            3.2248     3.9242    -0.0375 C.ar    
  20 N20            2.1175     4.2290    -0.6859 N.ar    
  21 H21           -0.9078     1.7547    -0.0803 H       
  22 H22            0.7886    -3.4629    -1.9857 H       
  23 H23            1.3057    -5.1507    -2.1364 H       
  24 H24           -1.0560    -4.6941    -1.1547 H       
  25 H25           -0.0107    -5.8430    -0.2784 H       
  26 H26           -1.1931    -4.0220     1.1243 H       
  27 H27            0.5388    -4.2587     1.3884 H       
  28 H28            5.1655    -4.2704     0.5757 H       
  29 H29            4.0724    -2.0584     1.2932 H       
  30 H30            0.1812     3.7124    -1.2299 H       
  31 H31            2.3051     0.9454     1.2534 H       
  32 H32            4.2401     2.5034     1.2026 H       
  33 H33            4.0620     4.6059    -0.0638 H       
@<TRIPOS>BOND
   1    1    3 1
   2    1   16 1
   3    1   21 1
   4    2    3 1
   5    2   11 1
   6    3    4 2
   7    4    5 1
   8    5    6 1
   9    5   11 2
  10    6    7 1
  11    6   14 2
  12    7    8 1
  13    7   12 2
  14    8    9 1
  15    8   22 1
  16    8   23 1
  17    9   10 1
  18    9   24 1
  19    9   25 1
  20   10   11 1
  21   10   26 1
  22   10   27 1
  23   12   13 1
  24   13   14 1
  25   13   28 1
  26   14   29 1
  27   15   16 ar
  28   15   20 ar
  29   15   30 1
  30   16   17 ar
  31   17   18 ar
  32   17   31 1
  33   18   19 ar
  34   18   32 1
  35   19   20 ar
  36   19   33 1

#	End of record

