#	Name: ASD05313193
#	Creating user name:	WinNT
#	Creation time:	15. 06. 2019 20:58

#	Modifying user name:	WinNT
#	Modification time:	15. 06. 2019 20:58

#	Program:	/corina/corina34_cracker 3.40 0067  02.08.2006

@<TRIPOS>MOLECULE
ASD05313193
  34   37    0    0    0
SMALL
NO_CHARGES


@<TRIPOS>ATOM
   1 C1            -0.0732     0.8206     1.0175 C.2     
   2 C2             0.1126    -0.6162     0.5923 C.3     
   3 N3             0.9364     1.7372     1.0435 N.pl3   
   4 N4             1.4566    -0.7161    -0.0078 N.am    
   5 C5             2.5712    -0.0364     0.6692 C.3     
   6 C6             2.3224     1.4767     0.6595 C.3     
   7 N7            -0.8987     2.6475     1.6968 N.2     
   8 N8            -1.1550     1.4157     1.4177 N.2     
   9 C9             0.3776     2.8969     1.4851 C.2     
  10 S10            2.6897     5.8655     1.8024 S.3     
  11 N11            2.3502     4.3808     1.4664 N.2     
  12 C12            1.0706     4.1879     1.6912 C.2     
  13 C13            0.4449     5.3459     2.1469 C.2     
  14 N14            1.2731     6.3455     2.2428 N.2     
  15 C15            1.6575    -1.4115    -1.1448 C.2     
  16 O16            2.7497    -1.4014    -1.6785 O.2     
  17 C17            0.5505    -2.1857    -1.7424 C.ar    
  18 C18            0.3192    -2.1304    -3.1195 C.ar    
  19 C19           -0.7185    -2.8582    -3.6718 C.ar    
  20 C20           -1.5273    -3.6400    -2.8612 C.ar    
  21 C21           -1.3010    -3.6966    -1.4960 C.ar    
  22 C22           -0.2653    -2.9801    -0.9345 C.ar    
  23 F23           -0.9450    -2.8071    -5.0027 F       
  24 Cl24          -2.8291    -4.5512    -3.5602 Cl      
  25 Cl25           1.3316    -1.1504    -4.1336 Cl      
  26 H26            0.0425    -1.2730     1.4594 H       
  27 H27           -0.6445    -0.8875    -0.1435 H       
  28 H28            2.6399    -0.3872     1.6990 H       
  29 H29            3.5024    -0.2555     0.1467 H       
  30 H30            2.5030     1.8690    -0.3413 H       
  31 H31            2.9940     1.9609     1.3683 H       
  32 H32           -0.6051     5.4073     2.3921 H       
  33 H33           -1.9351    -4.3069    -0.8700 H       
  34 H34           -0.0884    -3.0296     0.1298 H       
@<TRIPOS>BOND
   1    1    2 1
   2    1    3 1
   3    1    8 2
   4    2    4 1
   5    2   26 1
   6    2   27 1
   7    3    6 1
   8    3    9 1
   9    4    5 1
  10    4   15 am
  11    5    6 1
  12    5   28 1
  13    5   29 1
  14    6   30 1
  15    6   31 1
  16    7    8 1
  17    7    9 2
  18    9   12 1
  19   10   11 1
  20   10   14 1
  21   11   12 2
  22   12   13 1
  23   13   14 2
  24   13   32 1
  25   15   16 2
  26   15   17 1
  27   17   18 ar
  28   17   22 ar
  29   18   19 ar
  30   18   25 1
  31   19   20 ar
  32   19   23 1
  33   20   21 ar
  34   20   24 1
  35   21   22 ar
  36   21   33 1
  37   22   34 1

#	End of record

