#	Name: ASD01816012
#	Creating user name:	WinNT
#	Creation time:	15. 06. 2019 19:34

#	Modifying user name:	WinNT
#	Modification time:	15. 06. 2019 19:34

#	Program:	/corina/corina34_cracker 3.40 0067  02.08.2006

@<TRIPOS>MOLECULE
ASD01816012
  40   44    0    0    0
SMALL
NO_CHARGES


@<TRIPOS>ATOM
   1 C1             0.3073     1.3823    -1.5313 C.ar    
   2 C2             0.3226    -0.0030    -1.5204 C.ar    
   3 C3             1.4123    -0.6901    -1.0266 C.ar    
   4 C4             2.5093     0.0063    -0.5329 C.ar    
   5 C5             2.4909     1.4108    -0.5453 C.ar    
   6 C6             1.3866     2.0923    -1.0462 C.ar    
   7 N7             3.6069    -0.6781    -0.0345 N.pl3   
   8 C8             4.6954    -0.0568     0.4556 C.2     
   9 C9             4.7889     1.3116     0.4934 C.2     
  10 C10            3.6655     2.1304    -0.0166 C.2     
  11 C11            5.7897     2.2757     0.9418 C.2     
  12 N12            5.2683     3.4981     0.7017 N.am    
  13 N13            3.9993     3.3805     0.1293 N.2     
  14 C14            5.9082     4.7111     0.9868 C.ar    
  15 O15            6.8778     2.0269     1.4346 O.2     
  16 C16            3.5818    -2.0739    -0.0408 C.ar    
  17 C17            6.8019     5.2574     0.0754 C.ar    
  18 C18            7.4311     6.4539     0.3591 C.ar    
  19 C19            7.1728     7.1085     1.5496 C.ar    
  20 C20            6.2841     6.5685     2.4608 C.ar    
  21 C21            5.6456     5.3739     2.1809 C.ar    
  22 F22            4.7768     4.8462     3.0708 F       
  23 C23            4.0647    -2.7929    -1.1332 C.ar    
  24 C24            3.0786    -2.7850     1.0476 C.ar    
  25 C25            3.0719    -4.1639     1.0022 C.ar    
  26 N26            3.5339    -4.8083    -0.0526 N.ar    
  27 C27            4.0225    -4.1715    -1.1000 C.ar    
  28 H28           -0.5501     1.9082    -1.9247 H       
  29 H29           -0.5268    -0.5502    -1.9019 H       
  30 H30            1.4128    -1.7701    -1.0233 H       
  31 H31            1.3736     3.1722    -1.0547 H       
  32 H32            5.5165    -0.6507     0.8291 H       
  33 H33            7.0052     4.7471    -0.8544 H       
  34 H34            8.1262     6.8788    -0.3499 H       
  35 H35            7.6668     8.0437     1.7683 H       
  36 H36            6.0849     7.0820     3.3897 H       
  37 H37            4.4659    -2.2779    -1.9936 H       
  38 H38            2.6996    -2.2638     1.9142 H       
  39 H39            2.6839    -4.7230     1.8408 H       
  40 H40            4.3905    -4.7366    -1.9436 H       
@<TRIPOS>BOND
   1    1    2 ar
   2    1    6 ar
   3    1   28 1
   4    2    3 ar
   5    2   29 1
   6    3    4 ar
   7    3   30 1
   8    4    5 ar
   9    4    7 1
  10    5    6 ar
  11    5   10 1
  12    6   31 1
  13    7    8 1
  14    7   16 1
  15    8    9 2
  16    8   32 1
  17    9   10 1
  18    9   11 1
  19   10   13 2
  20   11   12 am
  21   11   15 2
  22   12   13 1
  23   12   14 1
  24   14   17 ar
  25   14   21 ar
  26   16   23 ar
  27   16   24 ar
  28   17   18 ar
  29   17   33 1
  30   18   19 ar
  31   18   34 1
  32   19   20 ar
  33   19   35 1
  34   20   21 ar
  35   20   36 1
  36   21   22 1
  37   23   27 ar
  38   23   37 1
  39   24   25 ar
  40   24   38 1
  41   25   26 ar
  42   25   39 1
  43   26   27 ar
  44   27   40 1

#	End of record

