#	Name: ASD09740623
#	Creating user name:	WinNT
#	Creation time:	15. 06. 2019 21:23

#	Modifying user name:	WinNT
#	Modification time:	15. 06. 2019 21:23

#	Program:	/corina/corina34_cracker 3.40 0067  02.08.2006

@<TRIPOS>MOLECULE
ASD09740623
  61   64    0    0    0
SMALL
NO_CHARGES


@<TRIPOS>ATOM
   1 N1            -0.0945     1.3694     0.7160 N.2     
   2 C2            -0.1044     0.0822     0.9576 C.2     
   3 C3             1.0398     1.9947     0.8638 C.2     
   4 S4             2.2743     0.8453     1.3714 S.3     
   5 C5             1.0786    -0.4492     1.3361 C.2     
   6 C6             1.2560     3.4391     0.6400 C.ar    
   7 C7             0.1958     4.2479     0.2376 C.ar    
   8 C8             2.5234     3.9952     0.8378 C.ar    
   9 C9             2.7306     5.3420     0.6310 C.ar    
  10 C10            1.6829     6.1562     0.2255 C.ar    
  11 C11            0.4055     5.6099     0.0285 C.ar    
  12 O12            1.8923     7.4813     0.0242 O.3     
  13 C13            3.2384     7.9489     0.1309 C.3     
  14 C14            3.4014     9.2268    -0.6946 C.3     
  15 C15            3.5610     8.2443     1.5971 C.3     
  16 C16           -0.6776     6.4478    -0.3905 C.1     
  17 N17           -1.5368     7.1124    -0.7230 N.1     
  18 C18            1.3269    -1.8689     1.6634 C.ar    
  19 C19            2.3991    -2.5457     1.0748 C.ar    
  20 C20            2.6255    -3.8710     1.3845 C.ar    
  21 C21            1.7904    -4.5252     2.2769 C.ar    
  22 C22            0.7284    -3.8603     2.8615 C.ar    
  23 C23            0.4950    -2.5338     2.5646 C.ar    
  24 C24            3.4388    -2.0649     0.0855 C.3     
  25 C25            4.5769    -3.1050     0.1588 C.3     
  26 C26            3.8340    -4.3752     0.6246 C.3     
  27 N27            3.4122    -5.1701    -0.5314 N.am    
  28 C28            3.2156    -6.4971    -0.4012 C.2     
  29 C29            2.7818    -7.3149    -1.5903 C.3     
  30 O30            3.3879    -7.0331     0.6730 O.2     
  31 N31            2.6378    -8.7213    -1.1912 N.3     
  32 C32            1.5366    -8.8864    -0.2330 C.3     
  33 C33            2.4487    -9.5848    -2.3645 C.3     
  34 H34           -0.9991    -0.5148     0.8611 H       
  35 H35           -0.7849     3.8212     0.0878 H       
  36 H36            3.3430     3.3671     1.1542 H       
  37 H37            3.7121     5.7652     0.7856 H       
  38 H38            3.9193     7.1848    -0.2441 H       
  39 H39            2.7205     9.9909    -0.3196 H       
  40 H40            4.4282     9.5834    -0.6132 H       
  41 H41            3.1716     9.0163    -1.7391 H       
  42 H42            2.8801     9.0084     1.9721 H       
  43 H43            3.4449     7.3340     2.1852 H       
  44 H44            4.5878     8.6010     1.6785 H       
  45 H45            1.9706    -5.5626     2.5172 H       
  46 H46            0.0835    -4.3792     3.5552 H       
  47 H47           -0.3343    -2.0141     3.0213 H       
  48 H48            3.0187    -2.0340    -0.9198 H       
  49 H49            3.8073    -1.0801     0.3728 H       
  50 H50            5.0268    -3.2570    -0.8223 H       
  51 H51            5.3288    -2.8060     0.8891 H       
  52 H52            4.4724    -4.9680     1.2796 H       
  53 H53            3.2744    -4.7415    -1.3906 H       
  54 H54            1.8260    -6.9420    -1.9585 H       
  55 H55            3.5306    -7.2357    -2.3784 H       
  56 H56            0.6042    -8.5558    -0.6905 H       
  57 H57            1.4521    -9.9368     0.0458 H       
  58 H58            1.7366    -8.2894     0.6567 H       
  59 H59            3.3116    -9.4953    -3.0243 H       
  60 H60            2.3447   -10.6203    -2.0405 H       
  61 H61            1.5493    -9.2794    -2.8992 H       
@<TRIPOS>BOND
   1    1    2 1
   2    1    3 2
   3    2    5 2
   4    2   34 1
   5    3    4 1
   6    3    6 1
   7    4    5 1
   8    5   18 1
   9    6    7 ar
  10    6    8 ar
  11    7   11 ar
  12    7   35 1
  13    8    9 ar
  14    8   36 1
  15    9   10 ar
  16    9   37 1
  17   10   11 ar
  18   10   12 1
  19   11   16 1
  20   12   13 1
  21   13   14 1
  22   13   15 1
  23   13   38 1
  24   14   39 1
  25   14   40 1
  26   14   41 1
  27   15   42 1
  28   15   43 1
  29   15   44 1
  30   16   17 3
  31   18   19 ar
  32   18   23 ar
  33   19   20 ar
  34   19   24 1
  35   20   21 ar
  36   20   26 1
  37   21   22 ar
  38   21   45 1
  39   22   23 ar
  40   22   46 1
  41   23   47 1
  42   24   25 1
  43   24   48 1
  44   24   49 1
  45   25   26 1
  46   25   50 1
  47   25   51 1
  48   26   27 1
  49   26   52 1
  50   27   28 am
  51   27   53 1
  52   28   29 1
  53   28   30 2
  54   29   31 1
  55   29   54 1
  56   29   55 1
  57   31   32 1
  58   31   33 1
  59   32   56 1
  60   32   57 1
  61   32   58 1
  62   33   59 1
  63   33   60 1
  64   33   61 1

#	End of record

