#	Name: ASD09810008
#	Creating user name:	WinNT
#	Creation time:	15. 06. 2019 21:24

#	Modifying user name:	WinNT
#	Modification time:	15. 06. 2019 21:24

#	Program:	/corina/corina34_cracker 3.40 0067  02.08.2006

@<TRIPOS>MOLECULE
ASD09810008
  48   51    0    0    0
SMALL
NO_CHARGES


@<TRIPOS>ATOM
   1 O1             0.1351     1.4426     0.3782 O.3     
   2 O2             4.5954    -6.2287    -1.5066 O.2     
   3 O3             2.5500    -3.3265    -1.9494 O.2     
   4 N4             4.9641    -4.2089    -2.4708 N.am    
   5 N5             2.9912    -2.1803    -0.1018 N.am    
   6 N6            -0.8902    -0.7690     0.1060 N.ar    
   7 C7             0.5972    -2.5742    -0.1351 C.ar    
   8 C8             0.8893    -4.0377    -0.3289 C.3     
   9 C9            -0.3397    -4.8798     0.0087 C.3     
  10 C10           -1.5401    -4.3074    -0.7543 C.3     
  11 C11           -1.9006    -2.9552    -0.1436 C.3     
  12 C12           -0.6825    -2.0694    -0.0575 C.ar    
  13 C13            1.6836    -1.7029    -0.0316 C.ar    
  14 C14            1.4268    -0.3394     0.1450 C.ar    
  15 C15            5.2679    -3.6928    -3.8106 C.3     
  16 C16            4.9048    -4.8356    -4.7846 C.3     
  17 C17            0.0965     0.1056     0.2095 C.ar    
  18 C18            5.0528    -6.0803    -3.8793 C.3     
  19 C19            4.8119    -3.3724    -1.2777 C.3     
  20 C20            2.2557     0.8601     0.2945 C.2     
  21 C21            4.8378    -5.5471    -2.4800 C.2     
  22 C22            3.3698    -2.9588    -1.1348 C.2     
  23 C23            1.4038     1.8858     0.4293 C.2     
  24 C24            3.7613     0.9264     0.2969 C.3     
  25 C25            1.8086     3.3260     0.6110 C.3     
  26 H26            1.1713    -4.2136    -1.3670 H       
  27 H27            1.7142    -4.3289     0.3213 H       
  28 H28           -0.1712    -5.9134    -0.2935 H       
  29 H29           -0.5314    -4.8366     1.0809 H       
  30 H30           -1.2785    -4.1774    -1.8044 H       
  31 H31           -2.3879    -4.9868    -0.6663 H       
  32 H32           -2.6542    -2.4702    -0.7640 H       
  33 H33           -2.3046    -3.1091     0.8570 H       
  34 H34            4.6627    -2.8110    -4.0214 H       
  35 H35            6.3278    -3.4515    -3.8906 H       
  36 H36            3.8802    -4.7328    -5.1419 H       
  37 H37            5.6052    -4.8744    -5.6188 H       
  38 H38            4.2921    -6.8219    -4.1230 H       
  39 H39            6.0502    -6.5084    -3.9794 H       
  40 H40            5.1168    -3.9372    -0.3967 H       
  41 H41            5.4367    -2.4845    -1.3743 H       
  42 H42            3.6288    -1.9521     0.5927 H       
  43 H43            4.1249     0.9655    -0.7299 H       
  44 H44            4.0847     1.8197     0.8312 H       
  45 H45            4.1631     0.0420     0.7912 H       
  46 H46            0.9163     3.9464     0.6944 H       
  47 H47            2.4053     3.4240     1.5179 H       
  48 H48            2.3970     3.6492    -0.2477 H       
@<TRIPOS>BOND
   1    1   17 1
   2    1   23 1
   3    2   21 2
   4    3   22 2
   5    4   15 1
   6    4   19 1
   7    4   21 am
   8    5   13 1
   9    5   22 am
  10    5   42 1
  11    6   12 ar
  12    6   17 ar
  13    7    8 1
  14    7   12 ar
  15    7   13 ar
  16    8    9 1
  17    8   26 1
  18    8   27 1
  19    9   10 1
  20    9   28 1
  21    9   29 1
  22   10   11 1
  23   10   30 1
  24   10   31 1
  25   11   12 1
  26   11   32 1
  27   11   33 1
  28   13   14 ar
  29   14   17 ar
  30   14   20 1
  31   15   16 1
  32   15   34 1
  33   15   35 1
  34   16   18 1
  35   16   36 1
  36   16   37 1
  37   18   21 1
  38   18   38 1
  39   18   39 1
  40   19   22 1
  41   19   40 1
  42   19   41 1
  43   20   23 2
  44   20   24 1
  45   23   25 1
  46   24   43 1
  47   24   44 1
  48   24   45 1
  49   25   46 1
  50   25   47 1
  51   25   48 1

#	End of record

