#	Name: ASD03092197
#	Creating user name:	WinNT
#	Creation time:	15. 06. 2019 20:32

#	Modifying user name:	WinNT
#	Modification time:	15. 06. 2019 20:32

#	Program:	/corina/corina34_cracker 3.40 0067  02.08.2006

@<TRIPOS>MOLECULE
ASD03092197
  45   48    0    0    0
SMALL
NO_CHARGES


@<TRIPOS>ATOM
   1 N1            -0.0159     1.3179     0.0093 N.ar    
   2 C2             0.0021    -0.0041     0.0020 C.ar    
   3 C3             1.1829    -0.7134    -0.0143 C.ar    
   4 C4             2.3898    -0.0148    -0.0232 C.ar    
   5 C5             2.3408     1.3929    -0.0116 C.ar    
   6 C6             1.0969     2.0376     0.0025 C.ar    
   7 N7             3.6014    -0.6582    -0.0460 N.pl3   
   8 C8             4.7608    -0.0069     0.2199 C.2     
   9 C9             4.8310     1.3540     0.2478 C.2     
  10 C10            3.6097     2.1334    -0.0115 C.2     
  11 O11            3.6490     3.3354    -0.2152 O.2     
  12 C12            6.1154     2.0374     0.5343 C.ar    
  13 C13            7.1844     1.9173    -0.3522 C.ar    
  14 C14            8.3774     2.5557    -0.0812 C.ar    
  15 C15            8.5137     3.3141     1.0690 C.ar    
  16 C16            7.4550     3.4365     1.9527 C.ar    
  17 C17            6.2560     2.8069     1.6881 C.ar    
  18 Cl18          10.0175     4.1137     1.4047 Cl      
  19 N19            1.0307     3.4192     0.0084 N.pl3   
  20 C20           -0.2716     4.0901     0.0232 C.3     
  21 C21           -0.0644     5.6060     0.0271 C.3     
  22 C22           -1.4041     6.2960     0.0423 C.ar    
  23 C23           -2.0073     6.6079     1.2463 C.ar    
  24 C24           -3.2361     7.2409     1.2603 C.ar    
  25 C25           -3.8616     7.5623     0.0701 C.ar    
  26 C26           -3.2579     7.2512    -1.1339 C.ar    
  27 C27           -2.0271     6.6222    -1.1478 C.ar    
  28 H28           -0.9342    -0.5423     0.0094 H       
  29 H29            1.1741    -1.7934    -0.0197 H       
  30 H30            3.6295    -1.6044    -0.2578 H       
  31 H31            5.6534    -0.5826     0.4155 H       
  32 H32            7.0793     1.3254    -1.2494 H       
  33 H33            9.2063     2.4633    -0.7673 H       
  34 H34            7.5664     4.0293     2.8485 H       
  35 H35            5.4307     2.9030     2.3780 H       
  36 H36            1.8465     3.9440     0.0028 H       
  37 H37           -0.8382     3.8031    -0.8626 H       
  38 H38           -0.8216     3.7962     0.9173 H       
  39 H39            0.5022     5.8930     0.9129 H       
  40 H40            0.4855     5.8998    -0.8670 H       
  41 H41           -1.5187     6.3568     2.1762 H       
  42 H42           -3.7077     7.4839     2.2010 H       
  43 H43           -4.8220     8.0562     0.0810 H       
  44 H44           -3.7467     7.5021    -2.0637 H       
  45 H45           -1.5555     6.3792    -2.0885 H       
@<TRIPOS>BOND
   1    1    2 ar
   2    1    6 ar
   3    2    3 ar
   4    2   28 1
   5    3    4 ar
   6    3   29 1
   7    4    5 ar
   8    4    7 1
   9    5    6 ar
  10    5   10 1
  11    6   19 1
  12    7    8 1
  13    7   30 1
  14    8    9 2
  15    8   31 1
  16    9   10 1
  17    9   12 1
  18   10   11 2
  19   12   13 ar
  20   12   17 ar
  21   13   14 ar
  22   13   32 1
  23   14   15 ar
  24   14   33 1
  25   15   16 ar
  26   15   18 1
  27   16   17 ar
  28   16   34 1
  29   17   35 1
  30   19   20 1
  31   19   36 1
  32   20   21 1
  33   20   37 1
  34   20   38 1
  35   21   22 1
  36   21   39 1
  37   21   40 1
  38   22   23 ar
  39   22   27 ar
  40   23   24 ar
  41   23   41 1
  42   24   25 ar
  43   24   42 1
  44   25   26 ar
  45   25   43 1
  46   26   27 ar
  47   26   44 1
  48   27   45 1

#	End of record

