#	Name: ASD01885636
#	Creating user name:	WinNT
#	Creation time:	15. 06. 2019 19:49

#	Modifying user name:	WinNT
#	Modification time:	15. 06. 2019 19:49

#	Program:	/corina/corina34_cracker 3.40 0067  02.08.2006

@<TRIPOS>MOLECULE
ASD01885636
  31   33    0    0    0
SMALL
NO_CHARGES


@<TRIPOS>ATOM
   1 C1            -0.0172     1.4136     0.0098 C.ar    
   2 C2             0.0021    -0.0041     0.0020 C.ar    
   3 C3            -1.2277    -0.7095     0.0099 C.ar    
   4 C4            -2.4016     0.0313     0.0251 C.ar    
   5 C5            -2.3344     1.4291     0.0320 C.ar    
   6 N6            -1.1792     2.0669     0.0299 N.ar    
   7 C7             1.2053     2.1129     0.0019 C.ar    
   8 C8             2.3775     1.4229    -0.0130 C.ar    
   9 C9             2.3912     0.0293    -0.0210 C.ar    
  10 C10            1.2286    -0.6812    -0.0128 C.ar    
  11 C11           -1.2590    -2.1899     0.0017 C.ar    
  12 C12           -2.0404    -2.8786     0.9300 C.ar    
  13 C13           -2.0661    -4.2574     0.9183 C.ar    
  14 C14           -1.3174    -4.9589    -0.0135 C.ar    
  15 C15           -0.5396    -4.2794    -0.9377 C.ar    
  16 C16           -0.5117    -2.9005    -0.9379 C.ar    
  17 C17           -3.5929     2.2132     0.0482 C.2     
  18 N18           -3.5476     3.5602     0.0551 N.am    
  19 O19           -4.6649     1.6414     0.0553 O.2     
  20 F20           -1.3456    -6.3096    -0.0207 F       
  21 H21           -3.3596    -0.4674     0.0311 H       
  22 H22            1.2120     3.1929     0.0072 H       
  23 H23            3.3123     1.9635    -0.0190 H       
  24 H24            3.3357    -0.4944    -0.0335 H       
  25 H25            1.2523    -1.7609    -0.0189 H       
  26 H26           -2.6239    -2.3328     1.6567 H       
  27 H27           -2.6704    -4.7914     1.6367 H       
  28 H28            0.0423    -4.8305    -1.6616 H       
  29 H29            0.0948    -2.3719    -1.6585 H       
  30 H30           -2.6918     4.0167     0.0494 H       
  31 H31           -4.3709     4.0731     0.0657 H       
@<TRIPOS>BOND
   1    1    2 ar
   2    1    7 ar
   3    1    6 ar
   4    2    3 ar
   5    2   10 ar
   6    3    4 ar
   7    3   11 1
   8    4    5 ar
   9    4   21 1
  10    5    6 ar
  11    5   17 1
  12    7    8 ar
  13    7   22 1
  14    8    9 ar
  15    8   23 1
  16    9   10 ar
  17    9   24 1
  18   10   25 1
  19   11   12 ar
  20   11   16 ar
  21   12   13 ar
  22   12   26 1
  23   13   14 ar
  24   13   27 1
  25   14   15 ar
  26   14   20 1
  27   15   16 ar
  28   15   28 1
  29   16   29 1
  30   17   18 am
  31   17   19 2
  32   18   30 1
  33   18   31 1

#	End of record

