#	Name: ASD03330451
#	Creating user name:	WinNT
#	Creation time:	15. 06. 2019 20:37

#	Modifying user name:	WinNT
#	Modification time:	15. 06. 2019 20:37

#	Program:	/corina/corina34_cracker 3.40 0067  02.08.2006

@<TRIPOS>MOLECULE
ASD03330451
  55   57    0    0    0
SMALL
NO_CHARGES


@<TRIPOS>ATOM
   1 C1             0.1579    -0.4297     1.0245 C.3     
   2 N2             0.1708    -1.8148     0.5336 N.3     
   3 C3             0.6093    -1.8780    -0.8724 C.3     
   4 C4             1.8860    -1.0874    -0.9973 C.2     
   5 N5             2.3238    -0.2047    -0.0536 N.pl3   
   6 C6             1.5964     0.0783     1.1868 C.3     
   7 C7             2.7996    -1.0880    -1.9995 C.2     
   8 N8             3.7792    -0.2179    -1.6629 N.2     
   9 C9             3.4990     0.3149    -0.4947 C.2     
  10 C10            4.3249     1.3129     0.2202 C.ar    
  11 C11            2.7368    -1.8921    -3.2328 C.2     
  12 O12            1.7992    -2.6434    -3.4218 O.2     
  13 C13            3.6560    -2.5945    -5.3773 C.3     
  14 N14            3.7184    -1.7951    -4.1512 N.am    
  15 C15           -1.1448    -2.4459     0.7036 C.3     
  16 C16            5.3418     2.0104    -0.4402 C.ar    
  17 C17            2.8084    -1.8633    -6.4203 C.3     
  18 C18            3.3632    -0.4530    -6.6306 C.3     
  19 C19            2.8527    -2.6313    -7.7428 C.3     
  20 C20            1.3617    -1.7744    -5.9304 C.3     
  21 C21            5.0488    -2.7986    -5.9153 C.2     
  22 O22            5.9238    -2.0015    -5.6511 O.2     
  23 N23            5.3220    -3.8670    -6.6901 N.am    
  24 C24            6.6983    -4.1278    -7.1194 C.3     
  25 N25            6.0553     2.8932     0.2368 N.ar    
  26 C26            5.8198     3.1196     1.5142 C.ar    
  27 N27            4.8720     2.4844     2.1748 N.ar    
  28 C28            4.1069     1.5897     1.5739 C.ar    
  29 H29           -0.3713     0.2024     0.3115 H       
  30 H30           -0.3507    -0.3916     1.9879 H       
  31 H31            0.7887    -2.9150    -1.1562 H       
  32 H32           -0.1563    -1.4460    -1.5169 H       
  33 H33            1.5885     1.1524     1.3718 H       
  34 H34            2.0761    -0.4355     2.0199 H       
  35 H35            3.2060    -3.5626    -5.1573 H       
  36 H36            4.4662    -1.1959    -4.0004 H       
  37 H37           -1.9035    -1.8450     0.2024 H       
  38 H38           -1.1272    -3.4454     0.2689 H       
  39 H39           -1.3797    -2.5157     1.7657 H       
  40 H40            5.5408     1.8302    -1.4863 H       
  41 H41            4.3939    -0.5164    -6.9796 H       
  42 H42            2.7594     0.0679    -7.3737 H       
  43 H43            3.3317     0.0941    -5.6884 H       
  44 H44            2.4235    -3.6232    -7.6015 H       
  45 H45            2.2791    -2.0911    -8.4960 H       
  46 H46            3.8871    -2.7266    -8.0732 H       
  47 H47            1.3301    -1.2272    -4.9882 H       
  48 H48            0.7579    -1.2534    -6.6735 H       
  49 H49            0.9664    -2.7790    -5.7806 H       
  50 H50            4.6075    -4.4633    -6.9635 H       
  51 H51            6.7228    -5.0276    -7.7341 H       
  52 H52            7.0644    -3.2810    -7.6998 H       
  53 H53            7.3315    -4.2689    -6.2434 H       
  54 H54            6.4227     3.8481     2.0360 H       
  55 H55            3.3324     1.0735     2.1217 H       
@<TRIPOS>BOND
   1    1    2 1
   2    1    6 1
   3    1   29 1
   4    1   30 1
   5    2    3 1
   6    2   15 1
   7    3    4 1
   8    3   31 1
   9    3   32 1
  10    4    5 1
  11    4    7 2
  12    5    6 1
  13    5    9 1
  14    6   33 1
  15    6   34 1
  16    7    8 1
  17    7   11 1
  18    8    9 2
  19    9   10 1
  20   10   16 ar
  21   10   28 ar
  22   11   12 2
  23   11   14 am
  24   13   14 1
  25   13   17 1
  26   13   21 1
  27   13   35 1
  28   14   36 1
  29   15   37 1
  30   15   38 1
  31   15   39 1
  32   16   25 ar
  33   16   40 1
  34   17   18 1
  35   17   19 1
  36   17   20 1
  37   18   41 1
  38   18   42 1
  39   18   43 1
  40   19   44 1
  41   19   45 1
  42   19   46 1
  43   20   47 1
  44   20   48 1
  45   20   49 1
  46   21   22 2
  47   21   23 am
  48   23   24 1
  49   23   50 1
  50   24   51 1
  51   24   52 1
  52   24   53 1
  53   25   26 ar
  54   26   27 ar
  55   26   54 1
  56   27   28 ar
  57   28   55 1

#	End of record

