#	Name: ASD01918588
#	Creating user name:	WinNT
#	Creation time:	15. 06. 2019 20:11

#	Modifying user name:	WinNT
#	Modification time:	15. 06. 2019 20:11

#	Program:	/corina/corina34_cracker 3.40 0067  02.08.2006

@<TRIPOS>MOLECULE
ASD01918588
  36   38    0    0    0
SMALL
NO_CHARGES


@<TRIPOS>ATOM
   1 C1             0.3199     1.4964    -0.0091 C.3     
   2 C2             0.3004    -0.0105    -0.0145 C.2     
   3 C3             0.3066    -0.7278    -1.1399 C.2     
   4 S4             0.2784    -2.4336    -0.7005 S.3     
   5 C5             0.2610    -2.0168     0.9575 C.2     
   6 N6             0.2354    -2.9268     2.0063 N.am    
   7 C7             0.2220    -4.2500     1.7502 C.2     
   8 O8             0.2323    -4.6467     0.6016 O.2     
   9 C9             0.1947    -5.2206     2.8688 C.ar    
  10 C10            0.1867    -6.5848     2.5975 C.ar    
  11 C11            0.1610    -7.4841     3.6605 C.ar    
  12 O12            0.1529    -8.8232     3.4384 O.3     
  13 C13            0.0469    -9.2549     2.0802 C.3     
  14 C14            1.3782    -9.7316     1.4948 C.3     
  15 S15            1.1315   -11.3555     2.2651 S.3     
  16 C16           -0.5171   -10.6708     1.9412 C.3     
  17 C17            0.1443    -6.9762     4.9563 C.ar    
  18 C18            0.1537    -5.6059     5.1464 C.ar    
  19 C19            0.1362    -5.0506     6.5472 C.3     
  20 N20            0.1836    -4.7803     4.1221 N.ar    
  21 N21            0.2815    -0.7276     1.0933 N.2     
  22 H22            1.3521     1.8464     0.0017 H       
  23 H23           -0.1810     1.8695    -0.9024 H       
  24 H24           -0.1974     1.8632     0.8775 H       
  25 H25            0.3250    -0.3318    -2.1445 H       
  26 H26            0.2272    -2.6101     2.9231 H       
  27 H27            0.1999    -6.9411     1.5781 H       
  28 H28           -0.4631    -8.5266     1.4497 H       
  29 H29            1.3781    -9.7696     0.4054 H       
  30 H30            2.2386    -9.1943     1.8937 H       
  31 H31           -1.2441   -10.9203     2.7140 H       
  32 H32           -0.8825   -10.8899     0.9379 H       
  33 H33            0.1239    -7.6448     5.8042 H       
  34 H34            1.1595    -4.9260     6.9015 H       
  35 H35           -0.3689    -4.0847     6.5489 H       
  36 H36           -0.3945    -5.7394     7.2045 H       
@<TRIPOS>BOND
   1    1    2 1
   2    1   22 1
   3    1   23 1
   4    1   24 1
   5    2   21 1
   6    2    3 2
   7    3    4 1
   8    3   25 1
   9    4    5 1
  10    5    6 1
  11    5   21 2
  12    6    7 am
  13    6   26 1
  14    7    8 2
  15    7    9 1
  16    9   20 ar
  17    9   10 ar
  18   10   11 ar
  19   10   27 1
  20   11   12 1
  21   11   17 ar
  22   12   13 1
  23   13   16 1
  24   13   14 1
  25   13   28 1
  26   14   15 1
  27   14   29 1
  28   14   30 1
  29   15   16 1
  30   16   31 1
  31   16   32 1
  32   17   18 ar
  33   17   33 1
  34   18   19 1
  35   18   20 ar
  36   19   34 1
  37   19   35 1
  38   19   36 1

#	End of record

