#	Name: ASD00310181
#	Creating user name:	WinNT
#	Creation time:	15. 06. 2019 18:33

#	Modifying user name:	WinNT
#	Modification time:	15. 06. 2019 18:33

#	Program:	/corina/corina34_cracker 3.40 0067  02.08.2006

@<TRIPOS>MOLECULE
ASD00310181
  21   22    0    0    0
SMALL
NO_CHARGES


@<TRIPOS>ATOM
   1 C1            -0.0164     1.3554     0.0095 C.2     
   2 C2             0.0021    -0.0041     0.0020 C.2     
   3 C3             1.3562    -0.3914    -0.0130 C.2     
   4 C4             2.0903     0.7391    -0.0139 C.2     
   5 O5             1.2579     1.7920    -0.0003 O.3     
   6 C6            -1.2247     2.2063     0.0201 C.2     
   7 C7            -1.2684     3.6270     0.0280 C.2     
   8 C8            -2.5988     3.9124     0.0362 C.2     
   9 O9            -3.2432     2.7352     0.0330 O.3     
  10 N10           -2.4748     1.8019     0.0183 N.2     
  11 P11            3.9022     0.8236    -0.0302 P.3     
  12 O12            4.4108     0.2640    -1.3025 O.2     
  13 O13            4.3692     2.3583     0.1057 O.3     
  14 O14            4.4903    -0.0276     1.2034 O.3     
  15 O15           -3.1627     5.1440     0.0456 O.3     
  16 H16           -0.8558    -0.6602     0.0070 H       
  17 H17            1.7348    -1.4028    -0.0217 H       
  18 H18           -0.4390     4.3187     0.0277 H       
  19 H19            4.0708     2.7898     0.9180 H       
  20 H20            5.4558    -0.0268     1.2570 H       
  21 H21           -3.3308     5.5064    -0.8350 H       
@<TRIPOS>BOND
   1    1    2 2
   2    1    5 1
   3    1    6 1
   4    2    3 1
   5    2   16 1
   6    3    4 2
   7    3   17 1
   8    4    5 1
   9    4   11 1
  10    6    7 1
  11    6   10 2
  12    7    8 2
  13    7   18 1
  14    8    9 1
  15    8   15 1
  16    9   10 1
  17   11   12 2
  18   11   13 1
  19   11   14 1
  20   13   19 1
  21   14   20 1
  22   15   21 1

#	End of record

