#	Name: ASD01200265
#	Creating user name:	WinNT
#	Creation time:	15. 06. 2019 19:08

#	Modifying user name:	WinNT
#	Modification time:	15. 06. 2019 19:08

#	Program:	/corina/corina34_cracker 3.40 0067  02.08.2006

@<TRIPOS>MOLECULE
ASD01200265
  61   64    0    0    0
SMALL
NO_CHARGES


@<TRIPOS>ATOM
   1 C1             6.4404    -6.2323     0.0270 C.3     
   2 C2             6.1534    -5.5338    -1.3145 C.3     
   3 N3             6.3935    -4.2692    -0.5927 N.am    
   4 C4             6.0362    -4.9036     0.6910 C.3     
   5 C5             6.7826    -3.0318    -0.9587 C.2     
   6 C6             6.7972    -1.9390     0.0333 C.ar    
   7 O7             7.1217    -2.8158    -2.1062 O.2     
   8 C8             6.2882    -2.1517     1.3172 C.ar    
   9 C9             6.3035    -1.1297     2.2399 C.ar    
  10 C10            6.8244     0.1124     1.8956 C.ar    
  11 C11            7.3313     0.3280     0.6191 C.ar    
  12 C12            7.3252    -0.6908    -0.3072 C.ar    
  13 O13            6.8378     1.1170     2.8076 O.3     
  14 C14            7.4469     2.2823     2.4643 C.ar    
  15 C15            6.8237     3.1579     1.5911 C.ar    
  16 C16            7.4526     4.3535     1.2417 C.ar    
  17 C17            8.7059     4.6587     1.7749 C.ar    
  18 C18            9.3181     3.7789     2.6443 C.ar    
  19 C19            8.6916     2.5972     2.9938 C.ar    
  20 C20           10.6713     4.1101     3.2190 C.3     
  21 C21           10.4943     4.8819     4.5282 C.3     
  22 C22           11.8633     5.3262     5.0473 C.3     
  23 O23           11.6907     6.1450     6.2056 O.3     
  24 C24            9.8239     3.9792     5.5657 C.3     
  25 C25            6.7941     5.2933     0.3098 C.2     
  26 N26            5.5841     4.9960    -0.2039 N.am    
  27 C27            4.9600     5.8866    -1.0870 C.2     
  28 O28            7.3439     6.3343     0.0069 O.2     
  29 N29            3.7886     5.7165    -1.6536 N.2     
  30 N30            3.5283     6.8309    -2.4614 N.pl3   
  31 C31            4.5780     7.6736    -2.3624 C.2     
  32 C32            5.4759     7.1201    -1.5161 C.2     
  33 C33            2.3269     7.0444    -3.2721 C.3     
  34 H34            5.7620    -7.0568     0.2464 H       
  35 H35            7.4889    -6.4935     0.1703 H       
  36 H36            6.8924    -5.7457    -2.0872 H       
  37 H37            5.1271    -5.6536    -1.6615 H       
  38 H38            4.9755    -4.8383     0.9332 H       
  39 H39            6.6817    -4.6124     1.5197 H       
  40 H40            5.8830    -3.1162     1.5854 H       
  41 H41            5.9100    -1.2932     3.2323 H       
  42 H42            7.7345     1.2945     0.3551 H       
  43 H43            7.7191    -0.5226    -1.2986 H       
  44 H44            5.8541     2.9161     1.1815 H       
  45 H45            9.1965     5.5827     1.5070 H       
  46 H46            9.1753     1.9127     3.6748 H       
  47 H47           11.2196     3.1880     3.4120 H       
  48 H48           11.2277     4.7218     2.5089 H       
  49 H49            9.8707     5.7583     4.3518 H       
  50 H50           12.4554     4.4488     5.3075 H       
  51 H51           12.3781     5.8954     4.2733 H       
  52 H52           12.5192     6.4635     6.5891 H       
  53 H53           10.4475     3.1028     5.7421 H       
  54 H54            9.6978     4.5290     6.4984 H       
  55 H55            8.8486     3.6627     5.1959 H       
  56 H56            5.1453     4.1653     0.0378 H       
  57 H57            4.6805     8.6234    -2.8661 H       
  58 H58            6.4244     7.5479    -1.2267 H       
  59 H59            1.5768     7.5677    -2.6791 H       
  60 H60            2.5806     7.6427    -4.1471 H       
  61 H61            1.9293     6.0815    -3.5930 H       
@<TRIPOS>BOND
   1    1    2 1
   2    1    4 1
   3    1   34 1
   4    1   35 1
   5    2    3 1
   6    2   36 1
   7    2   37 1
   8    3    4 1
   9    3    5 am
  10    4   38 1
  11    4   39 1
  12    5    6 1
  13    5    7 2
  14    6    8 ar
  15    6   12 ar
  16    8    9 ar
  17    8   40 1
  18    9   10 ar
  19    9   41 1
  20   10   11 ar
  21   10   13 1
  22   11   12 ar
  23   11   42 1
  24   12   43 1
  25   13   14 1
  26   14   15 ar
  27   14   19 ar
  28   15   16 ar
  29   15   44 1
  30   16   17 ar
  31   16   25 1
  32   17   18 ar
  33   17   45 1
  34   18   19 ar
  35   18   20 1
  36   19   46 1
  37   20   21 1
  38   20   47 1
  39   20   48 1
  40   21   22 1
  41   21   24 1
  42   21   49 1
  43   22   23 1
  44   22   50 1
  45   22   51 1
  46   23   52 1
  47   24   53 1
  48   24   54 1
  49   24   55 1
  50   25   26 am
  51   25   28 2
  52   26   27 1
  53   26   56 1
  54   27   29 2
  55   27   32 1
  56   29   30 1
  57   30   31 1
  58   30   33 1
  59   31   32 2
  60   31   57 1
  61   32   58 1
  62   33   59 1
  63   33   60 1
  64   33   61 1

#	End of record

