#	Name: ASD01900375
#	Creating user name:	WinNT
#	Creation time:	15. 06. 2019 19:51

#	Modifying user name:	WinNT
#	Modification time:	15. 06. 2019 19:51

#	Program:	/corina/corina34_cracker 3.40 0067  02.08.2006

@<TRIPOS>MOLECULE
ASD01900375
  30   32    0    0    0
SMALL
NO_CHARGES


@<TRIPOS>ATOM
   1 C1            -0.9258    -2.9778     0.8310 C.ar    
   2 C2            -0.3866    -1.9915     0.0155 C.ar    
   3 N3             0.9125    -1.8334    -0.0988 N.ar    
   4 C4             1.7674    -2.6109     0.5615 C.ar    
   5 C5             1.2912    -3.6315     1.4064 C.ar    
   6 C6            -0.0849    -3.8134     1.5394 C.ar    
   7 C7             3.2291    -2.6729     0.6337 C.2     
   8 N8             3.5465    -3.6439     1.4483 N.2     
   9 N9             2.3883    -4.2539     1.9410 N.pl3   
  10 N10            4.1242    -1.8423    -0.0474 N.pl3   
  11 C11            5.5000    -2.0855     0.0279 C.ar    
  12 C12            5.9674    -3.3790     0.2197 C.ar    
  13 C13            6.3993    -1.0339    -0.0948 C.ar    
  14 C14            7.7572    -1.2744    -0.0204 C.ar    
  15 C15            8.2237    -2.5654     0.1769 C.ar    
  16 C16            7.3266    -3.6180     0.2940 C.ar    
  17 O17            9.5613    -2.8011     0.2501 O.3     
  18 Cl18           7.9115    -5.2337     0.5415 Cl      
  19 C19           10.4272    -1.6723     0.1154 C.3     
  20 H20           -1.9969    -3.0880     0.9141 H       
  21 H21           -1.0490    -1.3411    -0.5365 H       
  22 H22           -0.4825    -4.5869     2.1797 H       
  23 H23            2.3655    -4.9988     2.5619 H       
  24 H24            3.7913    -1.0975    -0.5722 H       
  25 H25            5.2691    -4.1978     0.3112 H       
  26 H26            6.0366    -0.0284    -0.2488 H       
  27 H27            8.4561    -0.4566    -0.1162 H       
  28 H28           11.4643    -1.9987     0.1926 H       
  29 H29           10.2651    -1.2037    -0.8553 H       
  30 H30           10.2128    -0.9534     0.9062 H       
@<TRIPOS>BOND
   1    1    2 ar
   2    1    6 ar
   3    1   20 1
   4    2    3 ar
   5    2   21 1
   6    3    4 ar
   7    4    5 ar
   8    4    7 1
   9    5    6 ar
  10    5    9 1
  11    6   22 1
  12    7    8 2
  13    7   10 1
  14    8    9 1
  15    9   23 1
  16   10   11 1
  17   10   24 1
  18   11   12 ar
  19   11   13 ar
  20   12   16 ar
  21   12   25 1
  22   13   14 ar
  23   13   26 1
  24   14   15 ar
  25   14   27 1
  26   15   16 ar
  27   15   17 1
  28   16   18 1
  29   17   19 1
  30   19   28 1
  31   19   29 1
  32   19   30 1

#	End of record

