#	Name: ASD03092958
#	Creating user name:	WinNT
#	Creation time:	15. 06. 2019 20:33

#	Modifying user name:	WinNT
#	Modification time:	15. 06. 2019 20:33

#	Program:	/corina/corina34_cracker 3.40 0067  02.08.2006

@<TRIPOS>MOLECULE
ASD03092958
  41   43    0    0    0
SMALL
NO_CHARGES


@<TRIPOS>ATOM
   1 F1             0.0646    -0.0074     0.0117 F       
   2 C2             0.0403     1.3434     0.0176 C.ar    
   3 C3            -1.1707     2.0144     0.0360 C.ar    
   4 C4            -1.1943     3.3962     0.0421 C.ar    
   5 C5            -0.0095     4.1084     0.0298 C.ar    
   6 C6            -0.0366     5.6151     0.0369 C.3     
   7 N7            -0.0274     6.0972     1.4203 N.pl3   
   8 C8            -0.0486     7.4553     1.6794 C.ar    
   9 N9             0.0282     8.3266     0.6802 N.ar    
  10 C10            0.0072     9.6229     0.9318 C.ar    
  11 C11           -0.0944    10.0818     2.2373 C.ar    
  12 N12           -0.1710     9.2289     3.2386 N.ar    
  13 C13           -0.1573     7.9205     3.0004 C.ar    
  14 C14           -0.2496     6.9613     4.1198 C.2     
  15 O15           -0.3355     5.7697     3.8938 O.2     
  16 N16           -0.2385     7.4068     5.3917 N.am    
  17 C17           -0.4217     6.5094     6.4487 C.ar    
  18 C18            0.0857     5.2148     6.3724 C.ar    
  19 C19           -0.1210     4.3627     7.4451 C.ar    
  20 C20           -0.8182     4.8213     8.5471 C.ar    
  21 N21           -1.2865     6.0535     8.5883 N.ar    
  22 C22           -1.1075     6.8981     7.5926 C.ar    
  23 C23           -1.0469     3.9001     9.7177 C.3     
  24 F24            0.0118     4.0257    10.6236 F       
  25 F25           -2.2463     4.2409    10.3519 F       
  26 F26           -1.1183     2.5786     9.2641 F       
  27 C27            1.2002     3.4395     0.0115 C.ar    
  28 C28            1.2264     2.0577     0.0112 C.ar    
  29 H29           -2.0964     1.4583     0.0452 H       
  30 H30           -2.1388     3.9199     0.0560 H       
  31 H31            0.8399     5.9968    -0.4867 H       
  32 H32           -0.9396     5.9646    -0.4636 H       
  33 H33           -0.0064     5.4637     2.1545 H       
  34 H34            0.0698    10.3294     0.1173 H       
  35 H35           -0.1105    11.1436     2.4337 H       
  36 H36           -0.1036     8.3499     5.5741 H       
  37 H37            0.6266     4.8831     5.4985 H       
  38 H38            0.2580     3.3517     7.4205 H       
  39 H39           -1.5018     7.9009     7.6646 H       
  40 H40            2.1252     3.9969     0.0015 H       
  41 H41            2.1716     1.5353     0.0014 H       
@<TRIPOS>BOND
   1    1    2 1
   2    2   28 ar
   3    2    3 ar
   4    3    4 ar
   5    3   29 1
   6    4    5 ar
   7    4   30 1
   8    5    6 1
   9    5   27 ar
  10    6    7 1
  11    6   31 1
  12    6   32 1
  13    7    8 1
  14    7   33 1
  15    8   13 ar
  16    8    9 ar
  17    9   10 ar
  18   10   11 ar
  19   10   34 1
  20   11   12 ar
  21   11   35 1
  22   12   13 ar
  23   13   14 1
  24   14   15 2
  25   14   16 am
  26   16   17 1
  27   16   36 1
  28   17   22 ar
  29   17   18 ar
  30   18   19 ar
  31   18   37 1
  32   19   20 ar
  33   19   38 1
  34   20   21 ar
  35   20   23 1
  36   21   22 ar
  37   22   39 1
  38   23   24 1
  39   23   25 1
  40   23   26 1
  41   27   28 ar
  42   27   40 1
  43   28   41 1

#	End of record

