#	Name: ASD01882417
#	Creating user name:	WinNT
#	Creation time:	15. 06. 2019 19:44

#	Modifying user name:	WinNT
#	Modification time:	15. 06. 2019 19:44

#	Program:	/corina/corina34_cracker 3.40 0067  02.08.2006

@<TRIPOS>MOLECULE
ASD01882417
  45   48    0    0    0
SMALL
NO_CHARGES


@<TRIPOS>ATOM
   1 C1            -0.0159     1.3220     0.0093 C.2     
   2 N2             0.0021    -0.0041     0.0020 N.2     
   3 C3             1.1523    -0.6857    -0.0126 C.2     
   4 C4             2.3835     0.0173    -0.0206 C.2     
   5 C5             2.3523     1.3664    -0.0131 C.2     
   6 N6             1.1484     2.0132     0.0019 N.pl3   
   7 O7            -1.0993     2.1290     0.0184 O.3     
   8 C8             0.8540     3.4562     0.0125 C.3     
   9 C9            -0.6831     3.5211     0.0242 C.3     
  10 O10            1.1423    -1.9071    -0.0187 O.2     
  11 C11           -1.1944     4.2379    -1.2270 C.3     
  12 O12           -2.6209     4.3119    -1.1842 O.3     
  13 C13           -3.2391     4.9238    -2.2297 C.ar    
  14 C14           -4.6218     5.0300    -2.2515 C.ar    
  15 C15           -5.2504     5.6513    -3.3128 C.ar    
  16 C16           -4.4976     6.1701    -4.3580 C.ar    
  17 C17           -3.1133     6.0638    -4.3351 C.ar    
  18 C18           -2.4861     5.4464    -3.2707 C.ar    
  19 N19           -5.1337     6.7994    -5.4339 N.3     
  20 C20           -4.1545     7.2714    -6.4212 C.3     
  21 C21           -4.8881     7.8212    -7.6466 C.3     
  22 C22           -5.8011     8.9722    -7.2150 C.3     
  23 C23           -6.7794     8.4660    -6.1514 C.3     
  24 C24           -5.9910     7.8975    -4.9694 C.3     
  25 H25            3.3237    -0.5140    -0.0321 H       
  26 H26            3.2727     1.9314    -0.0185 H       
  27 H27            1.2651     3.9237     0.9072 H       
  28 H28            1.2480     3.9334    -0.8848 H       
  29 H29           -1.0396     4.0220     0.9243 H       
  30 H30           -0.7793     5.2451    -1.2639 H       
  31 H31           -0.8857     3.6850    -2.1142 H       
  32 H32           -5.2071     4.6265    -1.4385 H       
  33 H33           -6.3272     5.7333    -3.3300 H       
  34 H34           -2.5271     6.4670    -5.1476 H       
  35 H35           -1.4091     5.3672    -3.2507 H       
  36 H36           -3.5443     8.0591    -5.9795 H       
  37 H37           -3.5144     6.4423    -6.7229 H       
  38 H38           -4.1614     8.1858    -8.3726 H       
  39 H39           -5.4879     7.0303    -8.0969 H       
  40 H40           -5.1978     9.7797    -6.8001 H       
  41 H41           -6.3580     9.3385    -8.0774 H       
  42 H42           -7.4038     9.2912    -5.8091 H       
  43 H43           -7.4089     7.6852    -6.5782 H       
  44 H44           -6.6846     7.5231    -4.2165 H       
  45 H45           -5.3721     8.6823    -4.5345 H       
@<TRIPOS>BOND
   1    1    2 2
   2    1    6 1
   3    1    7 1
   4    2    3 1
   5    3    4 1
   6    3   10 2
   7    4    5 2
   8    4   25 1
   9    5    6 1
  10    5   26 1
  11    6    8 1
  12    7    9 1
  13    8    9 1
  14    8   27 1
  15    8   28 1
  16    9   11 1
  17    9   29 1
  18   11   12 1
  19   11   30 1
  20   11   31 1
  21   12   13 1
  22   13   14 ar
  23   13   18 ar
  24   14   15 ar
  25   14   32 1
  26   15   16 ar
  27   15   33 1
  28   16   17 ar
  29   16   19 1
  30   17   18 ar
  31   17   34 1
  32   18   35 1
  33   19   20 1
  34   19   24 1
  35   20   21 1
  36   20   36 1
  37   20   37 1
  38   21   22 1
  39   21   38 1
  40   21   39 1
  41   22   23 1
  42   22   40 1
  43   22   41 1
  44   23   24 1
  45   23   42 1
  46   23   43 1
  47   24   44 1
  48   24   45 1

#	End of record

