#	Name: ASD01150311
#	Creating user name:	WinNT
#	Creation time:	15. 06. 2019 19:04

#	Modifying user name:	WinNT
#	Modification time:	15. 06. 2019 19:04

#	Program:	/corina/corina34_cracker 3.40 0067  02.08.2006

@<TRIPOS>MOLECULE
ASD01150311
  63   65    0    0    0
SMALL
NO_CHARGES


@<TRIPOS>ATOM
   1 N1            -0.0007     1.2852     1.1018 N.pl3   
   2 C2             0.0142    -0.0824     0.8179 C.2     
   3 C3            -1.3164    -0.4811     0.7845 C.2     
   4 N4            -2.0704     0.5929     1.0348 N.2     
   5 C5            -1.3051     1.6462     1.2304 C.2     
   6 C6             1.1480    -0.8928     0.6077 C.2     
   7 C7             1.1145     2.1226     1.2345 C.ar    
   8 C8             1.3225     3.1532     0.3274 C.ar    
   9 C9             2.4229     3.9771     0.4609 C.ar    
  10 C10            3.3171     3.7765     1.4965 C.ar    
  11 C11            3.1129     2.7507     2.4012 C.ar    
  12 C12            2.0111     1.9273     2.2766 C.ar    
  13 N13           -1.7553     2.9154     1.5120 N.3     
  14 C14           -3.2227     2.9531     1.5686 C.3     
  15 C15           -1.1672     3.4174     2.7611 C.3     
  16 O16            1.0125    -2.0789     0.3670 O.2     
  17 O17            2.3846    -0.3540     0.6731 O.3     
  18 C18            3.4882    -1.2339     0.4497 C.3     
  19 C19            3.3791    -1.8438    -0.9492 C.3     
  20 C20            4.7969    -0.4494     0.5633 C.3     
  21 C21            3.4703    -2.3503     1.4957 C.3     
  22 N22           -1.7800    -1.7671     0.5352 N.am    
  23 C23           -3.1043    -2.0173     0.5323 C.2     
  24 C24           -3.5972    -3.3846     0.2673 C.ar    
  25 O25           -3.8933    -1.1180     0.7478 O.2     
  26 C26           -2.6953    -4.4435     0.1457 C.ar    
  27 C27           -3.1615    -5.7177    -0.1013 C.ar    
  28 C28           -4.5212    -5.9479    -0.2291 C.ar    
  29 C29           -5.4210    -4.9013    -0.1095 C.ar    
  30 C30           -4.9675    -3.6241     0.1430 C.ar    
  31 C31           -5.9476    -2.4868     0.2733 C.3     
  32 Cl32          -5.1003    -7.5545    -0.5411 Cl      
  33 O33            5.9005    -1.3293     0.3399 O.3     
  34 C34            7.1773    -0.6931     0.4240 C.3     
  35 H35            0.6247     3.3101    -0.4818 H       
  36 H36            2.5854     4.7786    -0.2445 H       
  37 H37            4.1768     4.4221     1.5988 H       
  38 H38            3.8134     2.5962     3.2085 H       
  39 H39            1.8520     1.1266     2.9837 H       
  40 H40           -3.5737     2.2768     2.3480 H       
  41 H41           -3.5517     3.9678     1.7927 H       
  42 H42           -3.6315     2.6427     0.6070 H       
  43 H43           -0.0817     3.4446     2.6664 H       
  44 H44           -1.5399     4.4223     2.9599 H       
  45 H45           -1.4438     2.7580     3.5837 H       
  46 H46            3.3918    -1.0484    -1.6944 H       
  47 H47            4.2209    -2.5149    -1.1197 H       
  48 H48            2.4467    -2.4026    -1.0302 H       
  49 H49            4.8096     0.3459    -0.1819 H       
  50 H50            4.8747    -0.0149     1.5599 H       
  51 H51            2.5380    -2.9091     1.4147 H       
  52 H52            4.3121    -3.0214     1.3252 H       
  53 H53            3.5481    -1.9158     2.4923 H       
  54 H54           -1.1505    -2.4848     0.3632 H       
  55 H55           -1.6348    -4.2650     0.2445 H       
  56 H56           -2.4649    -6.5375    -0.1955 H       
  57 H57           -6.4801    -5.0871    -0.2102 H       
  58 H58           -6.1603    -2.3094     1.3275 H       
  59 H59           -5.5200    -1.5863    -0.1676 H       
  60 H60           -6.8714    -2.7421    -0.2458 H       
  61 H61            7.2395     0.0973    -0.3241 H       
  62 H62            7.3045    -0.2636     1.4177 H       
  63 H63            7.9620    -1.4276     0.2425 H       
@<TRIPOS>BOND
   1    1    2 1
   2    1    7 1
   3    1    5 1
   4    2    3 2
   5    2    6 1
   6    3    4 1
   7    3   22 1
   8    4    5 2
   9    5   13 1
  10    6   16 2
  11    6   17 1
  12    7    8 ar
  13    7   12 ar
  14    8    9 ar
  15    8   35 1
  16    9   10 ar
  17    9   36 1
  18   10   11 ar
  19   10   37 1
  20   11   12 ar
  21   11   38 1
  22   12   39 1
  23   13   14 1
  24   13   15 1
  25   14   40 1
  26   14   41 1
  27   14   42 1
  28   15   43 1
  29   15   44 1
  30   15   45 1
  31   17   18 1
  32   18   19 1
  33   18   20 1
  34   18   21 1
  35   19   46 1
  36   19   47 1
  37   19   48 1
  38   20   33 1
  39   20   49 1
  40   20   50 1
  41   21   51 1
  42   21   52 1
  43   21   53 1
  44   22   23 am
  45   22   54 1
  46   23   24 1
  47   23   25 2
  48   24   26 ar
  49   24   30 ar
  50   26   27 ar
  51   26   55 1
  52   27   28 ar
  53   27   56 1
  54   28   29 ar
  55   28   32 1
  56   29   30 ar
  57   29   57 1
  58   30   31 1
  59   31   58 1
  60   31   59 1
  61   31   60 1
  62   33   34 1
  63   34   61 1
  64   34   62 1
  65   34   63 1

#	End of record

