#	Name: ASD07930600
#	Creating user name:	WinNT
#	Creation time:	15. 06. 2019 21:12

#	Modifying user name:	WinNT
#	Modification time:	15. 06. 2019 21:12

#	Program:	/corina/corina34_cracker 3.40 0067  02.08.2006

@<TRIPOS>MOLECULE
ASD07930600
  45   47    0    0    0
SMALL
NO_CHARGES


@<TRIPOS>ATOM
   1 C1             1.3698     0.7537    -1.5458 C.3     
   2 N2             2.3132    -2.0764    -1.4377 N.2     
   3 N3             0.0353    -2.5811    -1.3053 N.pl3   
   4 C4            -0.8997    -2.7420    -0.1868 C.3     
   5 C5            -1.5449    -1.3864     0.1325 C.3     
   6 S6            -0.2174    -0.1882     0.4736 S.o2    
   7 N7             0.8031    -0.3908    -0.8279 N.am    
   8 C8             1.0893    -1.6970    -1.1986 C.2     
   9 C9            -0.1433    -3.2500     1.0423 C.3     
  10 C10           -1.9707    -3.7326    -0.5647 C.ar    
  11 C11           -1.6888    -4.7462    -1.4620 C.ar    
  12 C12           -2.6775    -5.6601    -1.8104 C.ar    
  13 C13           -3.9454    -5.5527    -1.2565 C.ar    
  14 C14           -4.2234    -4.5370    -0.3592 C.ar    
  15 C15           -3.2347    -3.6304    -0.0089 C.ar    
  16 O16           -0.6959     1.1439     0.3488 O.2     
  17 O17            0.5517    -0.5941     1.5975 O.2     
  18 F18           -3.5080    -2.6396     0.8679 F       
  19 N19           -2.3942    -6.6872    -2.7193 N.am    
  20 C20           -3.3899    -7.2497    -3.4324 C.2     
  21 O21           -4.5173    -6.8012    -3.3607 O.2     
  22 C22           -3.1106    -8.4138    -4.3029 C.ar    
  23 N23           -1.8769    -8.8988    -4.3767 N.ar    
  24 C24           -3.8711   -10.0825    -5.8437 C.ar    
  25 C25           -4.1464    -8.9942    -5.0333 C.ar    
  26 C26           -1.5855    -9.9308    -5.1372 C.ar    
  27 C27           -2.5660   -10.5552    -5.8970 C.ar    
  28 F28           -0.4538    -4.8485    -2.0001 F       
  29 F29           -5.4575    -4.4319     0.1803 F       
  30 F30           -2.2551   -11.6150    -6.6750 F       
  31 H31            2.3189     1.0350    -1.0895 H       
  32 H32            1.5342     0.4831    -2.5888 H       
  33 H33            0.6780     1.5943    -1.4932 H       
  34 H34            3.0422    -1.4415    -1.3575 H       
  35 H35           -0.0848    -3.0982    -2.1171 H       
  36 H36           -2.1335    -1.0495    -0.7208 H       
  37 H37           -2.1873    -1.4822     1.0079 H       
  38 H38            0.6916    -2.5828     1.2566 H       
  39 H39           -0.8171    -3.2755     1.8987 H       
  40 H40            0.2345    -4.2537     0.8473 H       
  41 H41           -4.7147    -6.2611    -1.5261 H       
  42 H42           -1.4812    -6.9937    -2.8356 H       
  43 H43           -4.6531   -10.5532    -6.4211 H       
  44 H44           -5.1499    -8.6005    -4.9677 H       
  45 H45           -0.5703   -10.2976    -5.1717 H       
@<TRIPOS>BOND
   1    1    7 1
   2    1   31 1
   3    1   32 1
   4    1   33 1
   5    2    8 2
   6    2   34 1
   7    3    4 1
   8    3    8 1
   9    3   35 1
  10    4    5 1
  11    4    9 1
  12    4   10 1
  13    5    6 1
  14    5   36 1
  15    5   37 1
  16    6    7 am
  17    6   16 2
  18    6   17 2
  19    7    8 1
  20    9   38 1
  21    9   39 1
  22    9   40 1
  23   10   11 ar
  24   10   15 ar
  25   11   12 ar
  26   11   28 1
  27   12   13 ar
  28   12   19 1
  29   13   14 ar
  30   13   41 1
  31   14   15 ar
  32   14   29 1
  33   15   18 1
  34   19   20 am
  35   19   42 1
  36   20   21 2
  37   20   22 1
  38   22   23 ar
  39   22   25 ar
  40   23   26 ar
  41   24   25 ar
  42   24   27 ar
  43   24   43 1
  44   25   44 1
  45   26   27 ar
  46   26   45 1
  47   27   30 1

#	End of record

