#	Name: ASD03331560
#	Creating user name:	WinNT
#	Creation time:	15. 06. 2019 20:39

#	Modifying user name:	WinNT
#	Modification time:	15. 06. 2019 20:39

#	Program:	/corina/corina34_cracker 3.40 0067  02.08.2006

@<TRIPOS>MOLECULE
ASD03331560
  55   57    0    0    0
SMALL
NO_CHARGES


@<TRIPOS>ATOM
   1 C1             0.0334     0.3782    -0.4025 C.ar    
   2 C2             0.0562    -0.7384    -1.2466 C.ar    
   3 C3             1.1804     1.3111    -0.3443 C.2     
   4 N4             1.1019     2.6726    -0.3934 N.pl3   
   5 C5             2.3685     3.1521    -0.3377 C.2     
   6 C6             3.2022     2.0824    -0.2262 C.2     
   7 N7             2.4416     0.9668    -0.2313 N.2     
   8 C8            -0.1166     3.4825    -0.4684 C.3     
   9 C9             0.2015     4.8165    -1.1482 C.3     
  10 O10            0.6384     5.7663    -0.1742 O.3     
  11 C11            1.8259     5.4020     0.5243 C.3     
  12 C12            2.7436     4.6088    -0.4117 C.3     
  13 C13            4.6709     2.1327    -0.1138 C.2     
  14 O14            5.2446     3.2051    -0.1156 O.2     
  15 N15            5.3783     0.9903    -0.0090 N.am    
  16 C16            6.8382     1.0404     0.1027 C.3     
  17 C17            7.4250    -0.2542    -0.3981 C.2     
  18 N18            8.6666    -0.2732    -0.9219 N.am    
  19 O19            6.7799    -1.2789    -0.3298 O.2     
  20 C20            7.2309     1.2455     1.5672 C.3     
  21 C21            6.5969     0.1476     2.4238 C.3     
  22 C22            9.1948    -1.5067    -1.5101 C.3     
  23 C23           -1.0368    -1.5829    -1.2688 C.ar    
  24 N24           -2.0892    -1.3478    -0.5096 N.ar    
  25 C25           -2.1508    -0.3073     0.2994 C.ar    
  26 C26           -1.1067     0.5906     0.3804 C.ar    
  27 C27            8.7537     1.1810     1.7007 C.3     
  28 C28            6.7348     2.6129     2.0415 C.3     
  29 Cl29           1.4364    -1.0566    -2.2504 Cl      
  30 H30           -0.8718     2.9505    -1.0471 H       
  31 H31           -0.4927     3.6676     0.5377 H       
  32 H32            0.9886     4.6676    -1.8873 H       
  33 H33           -0.6932     5.1923    -1.6445 H       
  34 H34            2.3403     6.3021     0.8609 H       
  35 H35            1.5666     4.7873     1.3862 H       
  36 H36            3.7805     4.7354    -0.1005 H       
  37 H37            2.6203     4.9664    -1.4339 H       
  38 H38            4.9208     0.1350    -0.0075 H       
  39 H39            7.2202     1.8678    -0.4952 H       
  40 H40            9.2106     0.5298    -0.9095 H       
  41 H41            6.9504    -0.8265     2.0858 H       
  42 H42            6.8767     0.2938     3.4671 H       
  43 H43            5.5121     0.1936     2.3287 H       
  44 H44           10.2051    -1.3298    -1.8789 H       
  45 H45            9.2165    -2.2901    -0.7525 H       
  46 H46            8.5556    -1.8179    -2.3363 H       
  47 H47           -1.0295    -2.4469    -1.9168 H       
  48 H48           -3.0330    -0.1539     0.9032 H       
  49 H49           -1.1645     1.4397     1.0453 H       
  50 H50            9.2029     1.9969     1.1344 H       
  51 H51            9.0305     1.2722     2.7510 H       
  52 H52            9.1125     0.2281     1.3118 H       
  53 H53            5.6499     2.6588     1.9464 H       
  54 H54            7.0145     2.7590     3.0848 H       
  55 H55            7.1864     3.3950     1.4313 H       
@<TRIPOS>BOND
   1    1    2 ar
   2    1    3 1
   3    1   26 ar
   4    2   23 ar
   5    2   29 1
   6    3    4 1
   7    3    7 2
   8    4    5 1
   9    4    8 1
  10    5    6 2
  11    5   12 1
  12    6    7 1
  13    6   13 1
  14    8    9 1
  15    8   30 1
  16    8   31 1
  17    9   10 1
  18    9   32 1
  19    9   33 1
  20   10   11 1
  21   11   12 1
  22   11   34 1
  23   11   35 1
  24   12   36 1
  25   12   37 1
  26   13   14 2
  27   13   15 am
  28   15   16 1
  29   15   38 1
  30   16   20 1
  31   16   17 1
  32   16   39 1
  33   17   18 am
  34   17   19 2
  35   18   22 1
  36   18   40 1
  37   20   21 1
  38   20   27 1
  39   20   28 1
  40   21   41 1
  41   21   42 1
  42   21   43 1
  43   22   44 1
  44   22   45 1
  45   22   46 1
  46   23   24 ar
  47   23   47 1
  48   24   25 ar
  49   25   26 ar
  50   25   48 1
  51   26   49 1
  52   27   50 1
  53   27   51 1
  54   27   52 1
  55   28   53 1
  56   28   54 1
  57   28   55 1

#	End of record

