#	Name: ASD01190244
#	Creating user name:	WinNT
#	Creation time:	15. 06. 2019 19:08

#	Modifying user name:	WinNT
#	Modification time:	15. 06. 2019 19:08

#	Program:	/corina/corina34_cracker 3.40 0067  02.08.2006

@<TRIPOS>MOLECULE
ASD01190244
  66   70    0    0    0
SMALL
NO_CHARGES


@<TRIPOS>ATOM
   1 C1             1.4882     1.8427     0.6711 C.2     
   2 O2             2.3204     2.7276     0.5967 O.2     
   3 N3             1.7519     0.7276     1.3806 N.am    
   4 C4             3.0830     0.4983     1.9644 C.3     
   5 C5             2.9066     0.1397     3.4444 C.3     
   6 O6             1.9691    -0.9333     3.5602 O.3     
   7 C7             0.6559    -0.6162     3.0926 C.3     
   8 C8             0.7154    -0.2938     1.5994 C.3     
   9 N9            -0.3585     3.1719    -0.4496 N.pl3   
  10 C10            0.1959     1.9925    -0.0064 C.2     
  11 C11           -0.6845     0.9776    -0.3156 C.2     
  12 C12           -1.7812     1.5653    -0.9539 C.2     
  13 C13           -1.5565     2.8994    -1.0219 C.2     
  14 C14           -2.9974     0.8428    -1.4734 C.3     
  15 C15           -3.7533     0.2100    -0.3033 C.3     
  16 O16           -3.8512     1.7703    -2.1463 O.3     
  17 N17           -1.2725    -3.2975    -4.8634 N.pl3   
  18 N18           -0.5667    -4.0619    -3.9285 N.2     
  19 C19           -0.6246    -3.4991    -2.7548 C.2     
  20 C20           -1.4136    -2.2780    -2.8833 C.ar    
  21 C21           -1.8115    -1.2784    -1.9886 C.ar    
  22 C22           -2.5686    -0.2346    -2.4359 C.ar    
  23 C23           -2.9482    -0.1562    -3.7703 C.ar    
  24 C24           -2.5723    -1.1201    -4.6626 C.ar    
  25 C25           -1.7995    -2.1964    -4.2354 C.ar    
  26 C26           -1.4139    -3.6033    -6.2232 C.ar    
  27 C27           -0.3722    -4.2119    -6.9109 C.ar    
  28 C28           -0.5136    -4.5125    -8.2514 C.ar    
  29 C29           -1.6931    -4.2073    -8.9098 C.ar    
  30 C30           -2.7331    -3.6004    -8.2258 C.ar    
  31 C31           -2.5979    -3.3034    -6.8839 C.ar    
  32 F32           -1.8292    -4.5018   -10.2213 F       
  33 F33           -4.1513     1.2102     0.5902 F       
  34 F34           -4.8823    -0.4607    -0.7856 F       
  35 F35           -2.9173    -0.6980     0.3554 F       
  36 C36            0.2433     4.5012    -0.3189 C.3     
  37 C37            0.9825     4.8555    -1.6107 C.3     
  38 C38            1.5045     6.2910    -1.5223 C.3     
  39 O39            2.0973     6.6600    -2.7690 O.3     
  40 O40            2.0810     3.9596    -1.7921 O.3     
  41 H41            3.5757    -0.3230     1.4439 H       
  42 H42            3.6839     1.4033     1.8750 H       
  43 H43            3.8656    -0.1680     3.8612 H       
  44 H44            2.5346     1.0084     3.9876 H       
  45 H45           -0.0044    -1.4679     3.2564 H       
  46 H46            0.2757     0.2497     3.6346 H       
  47 H47           -0.2508     0.0870     1.2684 H       
  48 H48            0.9656    -1.1961     1.0415 H       
  49 H49           -0.5522    -0.0733    -0.1047 H       
  50 H50           -2.2232     3.6271    -1.4605 H       
  51 H51           -3.4367     2.2104    -2.9010 H       
  52 H52           -0.1700    -3.8702    -1.8482 H       
  53 H53           -1.5212    -1.3326    -0.9497 H       
  54 H54           -3.5480     0.6768    -4.1062 H       
  55 H55           -2.8743    -1.0475    -5.6969 H       
  56 H56            0.5479    -4.4497    -6.3979 H       
  57 H57            0.2964    -4.9855    -8.7867 H       
  58 H58           -3.6520    -3.3630    -8.7411 H       
  59 H59           -3.4110    -2.8345    -6.3496 H       
  60 H60           -0.5388     5.2375    -0.1342 H       
  61 H61            0.9465     4.5013     0.5139 H       
  62 H62            0.2995     4.7687    -2.4557 H       
  63 H63            0.6775     6.9653    -1.2996 H       
  64 H64            2.2511     6.3581    -0.7310 H       
  65 H65            2.4506     7.5600    -2.7855 H       
  66 H66            2.7419     4.0000    -1.0874 H       
@<TRIPOS>BOND
   1    1    2 2
   2    1    3 am
   3    1   10 1
   4    3    4 1
   5    3    8 1
   6    4    5 1
   7    4   41 1
   8    4   42 1
   9    5    6 1
  10    5   43 1
  11    5   44 1
  12    6    7 1
  13    7    8 1
  14    7   45 1
  15    7   46 1
  16    8   47 1
  17    8   48 1
  18    9   10 1
  19    9   13 1
  20    9   36 1
  21   10   11 2
  22   11   12 1
  23   11   49 1
  24   12   13 2
  25   12   14 1
  26   13   50 1
  27   14   15 1
  28   14   16 1
  29   14   22 1
  30   15   33 1
  31   15   34 1
  32   15   35 1
  33   16   51 1
  34   17   18 1
  35   17   25 1
  36   17   26 1
  37   18   19 2
  38   19   20 1
  39   19   52 1
  40   20   21 ar
  41   20   25 ar
  42   21   22 ar
  43   21   53 1
  44   22   23 ar
  45   23   24 ar
  46   23   54 1
  47   24   25 ar
  48   24   55 1
  49   26   27 ar
  50   26   31 ar
  51   27   28 ar
  52   27   56 1
  53   28   29 ar
  54   28   57 1
  55   29   30 ar
  56   29   32 1
  57   30   31 ar
  58   30   58 1
  59   31   59 1
  60   36   37 1
  61   36   60 1
  62   36   61 1
  63   37   38 1
  64   37   40 1
  65   37   62 1
  66   38   39 1
  67   38   63 1
  68   38   64 1
  69   39   65 1
  70   40   66 1

#	End of record

