#	Name: ASD03731477
#	Creating user name:	WinNT
#	Creation time:	15. 06. 2019 20:45

#	Modifying user name:	WinNT
#	Modification time:	15. 06. 2019 20:45

#	Program:	/corina/corina34_cracker 3.40 0067  02.08.2006

@<TRIPOS>MOLECULE
ASD03731477
  61   67    0    0    0
SMALL
NO_CHARGES


@<TRIPOS>ATOM
   1 O1            -0.0173     1.4275     0.0099 O.3     
   2 C2             0.0021    -0.0041     0.0020 C.3     
   3 C3             1.0275    -0.4764     1.0416 C.3     
   4 O4             2.3079     0.0529     0.6806 O.3     
   5 C5             2.3512     1.3697     0.3390 C.ar    
   6 C6             1.1901     2.0557     0.0017 C.ar    
   7 C7             3.5702     2.0304     0.3281 C.ar    
   8 C8             3.6305     3.3671    -0.0194 C.ar    
   9 C9             2.4763     4.0486    -0.3565 C.ar    
  10 C10            1.2577     3.3960    -0.3470 C.ar    
  11 C11           -1.3634    -0.5328     0.3584 C.2     
  12 O12           -2.2443     0.2340     0.6851 O.2     
  13 N13           -1.6056    -1.8579     0.3140 N.am    
  14 C14           -2.9330    -2.3719     0.6604 C.3     
  15 C15           -2.9398    -3.8963     0.5293 C.3     
  16 C16           -4.3261    -4.4331     0.8911 C.3     
  17 O17            0.7995    -9.4667     1.1788 O.3     
  18 C18            1.2480   -10.8348     1.1805 C.3     
  19 O19            0.2489   -11.5216     1.9571 O.3     
  20 C20           -0.8955   -10.7914     1.8087 C.ar    
  21 C21           -0.5562    -9.5276     1.3310 C.ar    
  22 C22           -2.2211   -11.1084     2.0454 C.ar    
  23 C23           -3.2228   -10.1713     1.8112 C.ar    
  24 C24           -2.8707    -8.9094     1.3420 C.ar    
  25 C25           -1.5505    -8.5923     1.0992 C.ar    
  26 O26           -4.5739   -10.2836     1.9604 O.3     
  27 C27           -4.1500    -8.1259     1.2171 C.3     
  28 C28           -5.1572    -8.9673     2.0127 C.3     
  29 N29           -4.3326    -5.8927     0.7655 N.am    
  30 C30           -4.0212    -6.7358     1.7701 C.2     
  31 C31           -4.5736    -7.9483    -0.2108 C.ar    
  32 C32           -4.8551    -8.8239    -1.2356 C.ar    
  33 C33           -5.2319    -8.3407    -2.4760 C.ar    
  34 C34           -5.3244    -6.9765    -2.6842 C.ar    
  35 C35           -5.0426    -6.0954    -1.6611 C.ar    
  36 C36           -4.6629    -6.5729    -0.4091 C.ar    
  37 O37           -3.7004    -6.4313     2.8995 O.2     
  38 H38            0.2891    -0.3624    -0.9866 H       
  39 H39            0.7443    -0.1121     2.0291 H       
  40 H40            1.0687    -1.5655     1.0488 H       
  41 H41            4.4735     1.5003     0.5917 H       
  42 H42            4.5810     3.8798    -0.0271 H       
  43 H43            2.5266     5.0927    -0.6282 H       
  44 H44            0.3573     3.9307    -0.6115 H       
  45 H45           -0.9010    -2.4712     0.0527 H       
  46 H46           -3.1736    -2.0945     1.6867 H       
  47 H47           -3.6751    -1.9459    -0.0146 H       
  48 H48           -2.6992    -4.1738    -0.4970 H       
  49 H49           -2.1976    -4.3224     1.2044 H       
  50 H50           -4.5667    -4.1557     1.9174 H       
  51 H51           -5.0682    -4.0071     0.2160 H       
  52 H52            1.2807   -11.2284     0.1646 H       
  53 H53            2.2256   -10.9168     1.6557 H       
  54 H54           -2.4803   -12.0898     2.4143 H       
  55 H55           -1.2917    -7.6118     0.7276 H       
  56 H56           -6.1351    -8.9578     1.5315 H       
  57 H57           -5.2276    -8.6158     3.0421 H       
  58 H58           -4.7820    -9.8887    -1.0708 H       
  59 H59           -5.4536    -9.0271    -3.2798 H       
  60 H60           -5.6184    -6.5994    -3.6526 H       
  61 H61           -5.1165    -5.0315    -1.8316 H       
@<TRIPOS>BOND
   1    1    2 1
   2    1    6 1
   3    2    3 1
   4    2   11 1
   5    2   38 1
   6    3    4 1
   7    3   39 1
   8    3   40 1
   9    4    5 1
  10    5    6 ar
  11    5    7 ar
  12    6   10 ar
  13    7    8 ar
  14    7   41 1
  15    8    9 ar
  16    8   42 1
  17    9   10 ar
  18    9   43 1
  19   10   44 1
  20   11   12 2
  21   11   13 am
  22   13   14 1
  23   13   45 1
  24   14   15 1
  25   14   46 1
  26   14   47 1
  27   15   16 1
  28   15   48 1
  29   15   49 1
  30   16   29 1
  31   16   50 1
  32   16   51 1
  33   17   18 1
  34   17   21 1
  35   18   19 1
  36   18   52 1
  37   18   53 1
  38   19   20 1
  39   20   21 ar
  40   20   22 ar
  41   21   25 ar
  42   22   23 ar
  43   22   54 1
  44   23   24 ar
  45   23   26 1
  46   24   25 ar
  47   24   27 1
  48   25   55 1
  49   26   28 1
  50   27   28 1
  51   27   30 1
  52   27   31 1
  53   28   56 1
  54   28   57 1
  55   29   30 am
  56   29   36 1
  57   30   37 2
  58   31   32 ar
  59   31   36 ar
  60   32   33 ar
  61   32   58 1
  62   33   34 ar
  63   33   59 1
  64   34   35 ar
  65   34   60 1
  66   35   36 ar
  67   35   61 1

#	End of record

