#	Name: ASD01320160
#	Creating user name:	WinNT
#	Creation time:	15. 06. 2019 19:16

#	Modifying user name:	WinNT
#	Modification time:	15. 06. 2019 19:16

#	Program:	/corina/corina34_cracker 3.40 0067  02.08.2006

@<TRIPOS>MOLECULE
ASD01320160
  49   52    0    0    0
SMALL
NO_CHARGES


@<TRIPOS>ATOM
   1 Cl1            0.0021    -0.0041     0.0020 Cl      
   2 C2            -0.0215     1.7317     0.0116 C.2     
   3 S3             1.4120     2.7416     0.0033 S.3     
   4 C4             0.4526     4.2164     0.0204 C.2     
   5 C5            -0.8922     3.9003     0.0315 C.2     
   6 C6            -1.1202     2.4619     0.0203 C.2     
   7 C7            -1.6081     5.1289     0.0450 C.2     
   8 C8            -0.6947     6.1384     0.0417 C.2     
   9 N9             0.5711     5.5862     0.0266 N.pl3   
  10 C10           -1.0029     7.5704     0.0514 C.2     
  11 N11           -0.0036     8.4748     0.0468 N.am    
  12 C12           -0.3118     9.9069     0.0565 C.3     
  13 O13           -2.1615     7.9435     0.0636 O.2     
  14 C14            0.8646    10.6755     0.6592 C.3     
  15 C15            0.6770    12.1513     0.4211 C.ar    
  16 C16            0.0631    12.5907    -0.7442 C.ar    
  17 N17           -0.3788    11.6632    -1.6926 N.am    
  18 C18           -0.5613    10.3741    -1.3522 C.2     
  19 O19           -0.9309     9.5794    -2.1906 O.2     
  20 C20           -0.6457    12.0980    -3.0659 C.3     
  21 C21            0.6102    11.9642    -3.8881 C.2     
  22 N22            0.6023    12.3084    -5.1912 N.am    
  23 C23            1.8232    12.1784    -5.9905 C.3     
  24 C24            1.5445    12.6325    -7.4247 C.3     
  25 O25            1.2352    14.0276    -7.4311 O.3     
  26 O26            1.6279    11.5469    -3.3772 O.2     
  27 C27            1.1134    13.0666     1.3585 C.ar    
  28 C28            0.9397    14.4204     1.1367 C.ar    
  29 C29            0.3285    14.8615    -0.0229 C.ar    
  30 C30           -0.1096    13.9509    -0.9643 C.ar    
  31 H31           -2.1092     2.0279     0.0218 H       
  32 H32           -2.6822     5.2408     0.0555 H       
  33 H33            1.4047     6.0820     0.0216 H       
  34 H34            0.9196     8.1774     0.0371 H       
  35 H35           -1.2042    10.0811     0.6577 H       
  36 H36            0.9126    10.4838     1.7312 H       
  37 H37            1.7918    10.3469     0.1898 H       
  38 H38           -1.4305    11.4768    -3.4976 H       
  39 H39           -0.9678    13.1393    -3.0612 H       
  40 H40           -0.2116    12.6422    -5.5997 H       
  41 H41            2.6080    12.7996    -5.5587 H       
  42 H42            2.1452    11.1371    -5.9951 H       
  43 H43            2.4258    12.4529    -8.0404 H       
  44 H44            0.7005    12.0714    -7.8259 H       
  45 H45            1.0470    14.3847    -8.3098 H       
  46 H46            1.5903    12.7250     2.2653 H       
  47 H47            1.2817    15.1349     1.8709 H       
  48 H48            0.1939    15.9196    -0.1926 H       
  49 H49           -0.5863    14.2960    -1.8698 H       
@<TRIPOS>BOND
   1    1    2 1
   2    2    3 1
   3    2    6 2
   4    3    4 1
   5    4    5 2
   6    4    9 1
   7    5    6 1
   8    5    7 1
   9    6   31 1
  10    7    8 2
  11    7   32 1
  12    8    9 1
  13    8   10 1
  14    9   33 1
  15   10   11 am
  16   10   13 2
  17   11   12 1
  18   11   34 1
  19   12   14 1
  20   12   18 1
  21   12   35 1
  22   14   15 1
  23   14   36 1
  24   14   37 1
  25   15   16 ar
  26   15   27 ar
  27   16   17 1
  28   16   30 ar
  29   17   18 am
  30   17   20 1
  31   18   19 2
  32   20   21 1
  33   20   38 1
  34   20   39 1
  35   21   22 am
  36   21   26 2
  37   22   23 1
  38   22   40 1
  39   23   24 1
  40   23   41 1
  41   23   42 1
  42   24   25 1
  43   24   43 1
  44   24   44 1
  45   25   45 1
  46   27   28 ar
  47   27   46 1
  48   28   29 ar
  49   28   47 1
  50   29   30 ar
  51   29   48 1
  52   30   49 1

#	End of record

