#	Name: ASD05490085
#	Creating user name:	WinNT
#	Creation time:	15. 06. 2019 21:01

#	Modifying user name:	WinNT
#	Modification time:	15. 06. 2019 21:01

#	Program:	/corina/corina34_cracker 3.40 0067  02.08.2006

@<TRIPOS>MOLECULE
ASD05490085
  67   71    0    0    0
SMALL
NO_CHARGES


@<TRIPOS>ATOM
   1 N1            -0.0178     1.4608     0.0101 N.pl3   
   2 O2             4.5582     2.8949    -0.0261 O.3     
   3 N3             2.7941     4.3826    -0.0015 N.ar    
   4 C4             1.4952     4.6638     0.0118 C.ar    
   5 C5             3.2233     3.1292    -0.0123 C.ar    
   6 N6             2.3949     2.0994    -0.0093 N.ar    
   7 C7             1.0795     2.2895     0.0040 C.ar    
   8 C8             0.5781     3.6006     0.0150 C.ar    
   9 N9             1.0558     5.9772     0.0226 N.pl3   
  10 C10           -1.1306     2.2546     0.0190 C.2     
  11 N11           -0.7773     3.5129     0.0270 N.2     
  12 C12            5.4173     4.0368    -0.0280 C.3     
  13 C13            6.8766     3.5771    -0.0442 C.3     
  14 O14            7.1483     2.8975    -1.2715 O.3     
  15 C15            8.4917     2.4246    -1.3889 C.3     
  16 C16            0.0021    -0.0041     0.0020 C.3     
  17 C17            0.0225    -0.5140     1.4200 C.ar    
  18 C18           -1.1614    -0.7663     2.0879 C.ar    
  19 N19           -1.1568    -1.2123     3.3278 N.ar    
  20 C20           -0.0248    -1.4361     3.9821 C.ar    
  21 C21            1.2049    -1.2028     3.3700 C.ar    
  22 C22            1.2299    -0.7401     2.0658 C.ar    
  23 C23           -0.0686    -1.9384     5.3773 C.ar    
  24 C24           -1.2940    -2.1741     5.9976 C.ar    
  25 C25            1.1156    -2.1818     6.0704 C.ar    
  26 C26            1.0690    -2.6495     7.3680 C.ar    
  27 C27           -0.1502    -2.8772     7.9805 C.ar    
  28 C28           -1.3288    -2.6419     7.2956 C.ar    
  29 C29           -0.1946    -3.3884     9.3974 C.3     
  30 N30           -0.2163    -2.2517    10.3277 N.3     
  31 C31           -0.4983    -2.7002    11.7036 C.3     
  32 C32            0.6685    -2.2167    12.5903 C.3     
  33 C33            1.2605    -1.0364    11.7759 C.3     
  34 C34            1.0781    -1.5372    10.3214 C.3     
  35 O35           -2.4073     1.8048     0.0270 O.3     
  36 C36           -3.4422     2.7900     0.0462 C.3     
  37 H37            1.6985     6.7037     0.0206 H       
  38 H38            0.1053     6.1706     0.0323 H       
  39 H39            5.2168     4.6408    -0.9129 H       
  40 H40            5.2335     4.6312     0.8670 H       
  41 H41            7.5315     4.4439     0.0439 H       
  42 H42            7.0539     2.9012     0.7924 H       
  43 H43            8.7025     1.7248    -0.5803 H       
  44 H44            8.6170     1.9208    -2.3473 H       
  45 H45            9.1802     3.2675    -1.3287 H       
  46 H46           -0.8878    -0.3767    -0.5053 H       
  47 H47            0.8920    -0.3525    -0.5222 H       
  48 H48           -2.1027    -0.5953     1.5868 H       
  49 H49            2.1258    -1.3852     3.9040 H       
  50 H50            2.1678    -0.5506     1.5651 H       
  51 H51           -2.2148    -1.9907     5.4638 H       
  52 H52            2.0681    -2.0051     5.5929 H       
  53 H53            1.9861    -2.8385     7.9061 H       
  54 H54           -2.2779    -2.8209     7.7788 H       
  55 H55           -1.0923    -3.9905     9.5385 H       
  56 H56            0.6869    -3.9996     9.5910 H       
  57 H57           -1.4343    -2.2632    12.0516 H       
  58 H58           -0.5607    -3.7880    11.7336 H       
  59 H59            0.3009    -1.8720    13.5568 H       
  60 H60            1.4087    -3.0066    12.7177 H       
  61 H61            0.6945    -0.1209    11.9475 H       
  62 H62            2.3152    -0.8911    12.0094 H       
  63 H63            1.8856    -2.2172    10.0501 H       
  64 H64            1.0428    -0.6942     9.6314 H       
  65 H65           -4.4139     2.2962     0.0508 H       
  66 H66           -3.3425     3.4042     0.9411 H       
  67 H67           -3.3595     3.4211    -0.8387 H       
@<TRIPOS>BOND
   1    1   16 1
   2    1    7 1
   3    1   10 1
   4    2   12 1
   5    2    5 1
   6    3    4 ar
   7    3    5 ar
   8    4    9 1
   9    4    8 ar
  10    5    6 ar
  11    6    7 ar
  12    7    8 ar
  13    8   11 1
  14    9   37 1
  15    9   38 1
  16   10   11 2
  17   10   35 1
  18   12   13 1
  19   12   39 1
  20   12   40 1
  21   13   14 1
  22   13   41 1
  23   13   42 1
  24   14   15 1
  25   15   43 1
  26   15   44 1
  27   15   45 1
  28   16   17 1
  29   16   46 1
  30   16   47 1
  31   17   18 ar
  32   17   22 ar
  33   18   19 ar
  34   18   48 1
  35   19   20 ar
  36   20   21 ar
  37   20   23 1
  38   21   22 ar
  39   21   49 1
  40   22   50 1
  41   23   24 ar
  42   23   25 ar
  43   24   28 ar
  44   24   51 1
  45   25   26 ar
  46   25   52 1
  47   26   27 ar
  48   26   53 1
  49   27   28 ar
  50   27   29 1
  51   28   54 1
  52   29   30 1
  53   29   55 1
  54   29   56 1
  55   30   31 1
  56   30   34 1
  57   31   32 1
  58   31   57 1
  59   31   58 1
  60   32   33 1
  61   32   59 1
  62   32   60 1
  63   33   34 1
  64   33   61 1
  65   33   62 1
  66   34   63 1
  67   34   64 1
  68   35   36 1
  69   36   65 1
  70   36   66 1
  71   36   67 1

#	End of record

