#	Name: ASD01148584
#	Creating user name:	WinNT
#	Creation time:	15. 06. 2019 19:02

#	Modifying user name:	WinNT
#	Modification time:	15. 06. 2019 19:02

#	Program:	/corina/corina34_cracker 3.40 0067  02.08.2006

@<TRIPOS>MOLECULE
ASD01148584
  59   62    0    0    0
SMALL
NO_CHARGES


@<TRIPOS>ATOM
   1 C1            -0.0170     1.4364    -0.0252 C.ar    
   2 C2             0.0191     0.0536    -0.0359 C.ar    
   3 C3            -1.1595    -0.6684    -0.0202 C.ar    
   4 C4            -2.3740    -0.0090     0.0060 C.ar    
   5 C5            -2.4108     1.3731     0.0167 C.ar    
   6 C6            -1.2330     2.0960     0.0064 C.ar    
   7 C7            -3.7353     2.0913     0.0454 C.3     
   8 O8            -4.7239     1.3223     0.7600 O.3     
   9 C9            -3.6509     3.3744     0.9060 C.3     
  10 C10           -4.1234     2.8922     2.2643 C.2     
  11 N11           -4.7048     1.7486     2.1080 N.2     
  12 C12           -3.9489     3.6043     3.5418 C.ar    
  13 C13           -4.4553     3.0231     4.7827 C.ar    
  14 C14           -3.2973     4.8294     3.5753 C.ar    
  15 C15           -3.1196     5.5200     4.7610 C.ar    
  16 C16           -3.5851     5.0176     5.9681 C.ar    
  17 C17           -4.2736     3.7294     5.9953 C.ar    
  18 C18           -3.3810     5.7762     7.2157 C.2     
  19 O19           -3.8817     5.3865     8.2532 O.2     
  20 N20           -2.6395     6.9016     7.2064 N.am    
  21 C21           -4.7595     3.1839     7.1903 C.ar    
  22 C22           -5.1134     1.7867     4.7972 C.ar    
  23 C23           -4.2116     2.4124    -1.3727 C.3     
  24 F24           -4.3442     1.2249    -2.1003 F       
  25 F25           -5.4485     3.0633    -1.3130 F       
  26 F26           -3.2776     3.2428    -2.0015 F       
  27 Cl27           1.4628     2.3439    -0.0442 Cl      
  28 C28           -2.4367     7.6554     8.4461 C.3     
  29 C29           -1.5781     8.8618     8.1657 C.2     
  30 N30           -1.2578     9.7079     9.1647 N.am    
  31 O31           -1.1753     9.0712     7.0411 O.2     
  32 C32           -0.4232    10.8806     8.8922 C.3     
  33 C33           -0.2113    11.6679    10.1869 C.3     
  34 F34            0.4237    10.8525    11.1298 F       
  35 F35            0.5857    12.7877     9.9266 F       
  36 F36           -1.4497    12.0832    10.6880 F       
  37 C37           -5.5697     1.2807     5.9779 C.ar    
  38 C38           -5.3958     1.9783     7.1703 C.ar    
  39 C39           -1.1204    -2.1749    -0.0324 C.3     
  40 F40            0.2101    -2.6066    -0.0594 F       
  41 F41           -1.7470    -2.6669     1.1176 F       
  42 F42           -1.7878    -2.6496    -1.1665 F       
  43 H43            0.9680    -0.4617    -0.0567 H       
  44 H44           -3.2946    -0.5736     0.0179 H       
  45 H45           -1.2618     3.1755     0.0147 H       
  46 H46           -2.6246     3.7374     0.9598 H       
  47 H47           -4.3154     4.1458     0.5166 H       
  48 H48           -2.9206     5.2526     2.6559 H       
  49 H49           -2.6071     6.4705     4.7470 H       
  50 H50           -2.2402     7.2125     6.3789 H       
  51 H51           -4.6305     3.7148     8.1219 H       
  52 H52           -5.2588     1.2378     3.8785 H       
  53 H53           -3.4015     7.9790     8.8366 H       
  54 H54           -1.9419     7.0202     9.1808 H       
  55 H55           -1.5800     9.5404    10.0642 H       
  56 H56            0.5417    10.5570     8.5017 H       
  57 H57           -0.9179    11.5158     8.1575 H       
  58 H58           -6.0770     0.3273     5.9880 H       
  59 H59           -5.7701     1.5585     8.0923 H       
@<TRIPOS>BOND
   1    1    2 ar
   2    1   27 1
   3    1    6 ar
   4    2    3 ar
   5    2   43 1
   6    3    4 ar
   7    3   39 1
   8    4    5 ar
   9    4   44 1
  10    5    6 ar
  11    5    7 1
  12    6   45 1
  13    7    8 1
  14    7    9 1
  15    7   23 1
  16    8   11 1
  17    9   10 1
  18    9   46 1
  19    9   47 1
  20   10   11 2
  21   10   12 1
  22   12   13 ar
  23   12   14 ar
  24   13   22 ar
  25   13   17 ar
  26   14   15 ar
  27   14   48 1
  28   15   16 ar
  29   15   49 1
  30   16   17 ar
  31   16   18 1
  32   17   21 ar
  33   18   19 2
  34   18   20 am
  35   20   28 1
  36   20   50 1
  37   21   38 ar
  38   21   51 1
  39   22   37 ar
  40   22   52 1
  41   23   24 1
  42   23   25 1
  43   23   26 1
  44   28   29 1
  45   28   53 1
  46   28   54 1
  47   29   31 2
  48   29   30 am
  49   30   32 1
  50   30   55 1
  51   32   33 1
  52   32   56 1
  53   32   57 1
  54   33   34 1
  55   33   35 1
  56   33   36 1
  57   37   38 ar
  58   37   58 1
  59   38   59 1
  60   39   40 1
  61   39   41 1
  62   39   42 1

#	End of record

