#	Name: ASD08070669
#	Creating user name:	WinNT
#	Creation time:	15. 06. 2019 21:15

#	Modifying user name:	WinNT
#	Modification time:	15. 06. 2019 21:15

#	Program:	/corina/corina34_cracker 3.40 0067  02.08.2006

@<TRIPOS>MOLECULE
ASD08070669
  38   39    0    0    0
SMALL
NO_CHARGES


@<TRIPOS>ATOM
   1 O1            -0.3502     2.5553    -0.2430 O.3     
   2 C2            -0.5267     1.1265    -0.2507 C.3     
   3 O3             0.6793     0.6352    -0.8650 O.3     
   4 C4             1.6333     1.5741    -0.5954 C.ar    
   5 C5             0.9982     2.7565    -0.2122 C.ar    
   6 C6             1.7513     3.8747     0.1183 C.ar    
   7 C7             3.1276     3.8233     0.0691 C.ar    
   8 C8             3.7691     2.6435    -0.3143 C.ar    
   9 C9             3.0120     1.5167    -0.6466 C.ar    
  10 C10            5.2431     2.5866    -0.3680 C.2     
  11 O11            5.8001     1.5587    -0.7019 O.2     
  12 N12            5.9716     3.6741    -0.0469 N.am    
  13 C13            7.9044     3.9055    -1.5275 C.3     
  14 C14            7.4345     3.6176    -0.1002 C.3     
  15 C15            8.0203     4.6638     0.8503 C.3     
  16 C16            7.6370     4.3162     2.2901 C.3     
  17 C17            8.3057     3.0002     2.6923 C.3     
  18 C18            8.1044     5.4327     3.2260 C.3     
  19 O19            7.5648     5.2483    -1.8791 O.3     
  20 H20           -0.6202     0.7468     0.7667 H       
  21 H21           -1.3983     0.8516    -0.8447 H       
  22 H22            1.2571     4.7881     0.4147 H       
  23 H23            3.7100     4.6956     0.3266 H       
  24 H24            3.5046     0.6025    -0.9431 H       
  25 H25            5.5273     4.4942     0.2195 H       
  26 H26            8.9850     3.7765    -1.5873 H       
  27 H27            7.4174     3.2153    -2.2164 H       
  28 H28            7.7710     2.6253     0.1999 H       
  29 H29            9.1061     4.6734     0.7555 H       
  30 H30            7.6248     5.6473     0.5963 H       
  31 H31            6.5545     4.2107     2.3626 H       
  32 H32            9.3882     3.1057     2.6199 H       
  33 H33            8.0326     2.7525     3.7181 H       
  34 H34            7.9727     2.2048     2.0256 H       
  35 H35            9.1933     5.4803     3.2193 H       
  36 H36            7.6970     6.3852     2.8872 H       
  37 H37            7.7558     5.2280     4.2383 H       
  38 H38            7.8333     5.5006    -2.7732 H       
@<TRIPOS>BOND
   1    1    2 1
   2    1    5 1
   3    2    3 1
   4    2   20 1
   5    2   21 1
   6    3    4 1
   7    4    5 ar
   8    4    9 ar
   9    5    6 ar
  10    6    7 ar
  11    6   22 1
  12    7    8 ar
  13    7   23 1
  14    8    9 ar
  15    8   10 1
  16    9   24 1
  17   10   11 2
  18   10   12 am
  19   12   14 1
  20   12   25 1
  21   13   19 1
  22   13   14 1
  23   13   26 1
  24   13   27 1
  25   14   15 1
  26   14   28 1
  27   15   16 1
  28   15   29 1
  29   15   30 1
  30   16   17 1
  31   16   18 1
  32   16   31 1
  33   17   32 1
  34   17   33 1
  35   17   34 1
  36   18   35 1
  37   18   36 1
  38   18   37 1
  39   19   38 1

#	End of record

