#	Name: ASD02032004
#	Creating user name:	WinNT
#	Creation time:	15. 06. 2019 20:16

#	Modifying user name:	WinNT
#	Modification time:	15. 06. 2019 20:16

#	Program:	/corina/corina34_cracker 3.40 0067  02.08.2006

@<TRIPOS>MOLECULE
ASD02032004
  23   23    0    0    0
SMALL
NO_CHARGES


@<TRIPOS>ATOM
   1 O1            -0.0143     1.2049     0.0087 O.3     
   2 N2             0.0021    -0.0041     0.0020 N.2     
   3 C3             1.2237    -0.4661    -0.0121 C.2     
   4 C4             2.0771     0.6680    -0.0142 C.2     
   5 C5             1.2244     1.7180    -0.0004 C.2     
   6 C6             5.5837     0.6176    -1.4924 C.2     
   7 C7             4.0799     0.7136    -1.4756 C.3     
   8 C8             3.5838     0.6958    -0.0284 C.3     
   9 O9             6.2510     1.6132    -1.6454 O.2     
  10 O10            6.1819    -0.5739    -1.3373 O.3     
  11 C11            1.5945     3.1789     0.0039 C.3     
  12 O12            1.6014    -1.7696    -0.0221 O.3     
  13 N13            3.6619     1.9653    -2.1212 N.3     
  14 H14            3.6557    -0.1329    -2.0156 H       
  15 H15            3.9355     1.5894     0.4873 H       
  16 H16            3.9684    -0.1902     0.4766 H       
  17 H17            7.1487    -0.5854    -1.3551 H       
  18 H18            0.6875     3.7834     0.0163 H       
  19 H19            2.1906     3.4001     0.8892 H       
  20 H20            2.1729     3.4098    -0.8906 H       
  21 H21            1.7025    -2.1430    -0.9083 H       
  22 H22            2.6563     2.0233    -2.1804 H       
  23 H23            4.0426     2.7656    -1.6388 H       
@<TRIPOS>BOND
   1    1    2 1
   2    1    5 1
   3    2    3 2
   4    3    4 1
   5    3   12 1
   6    4    5 2
   7    4    8 1
   8    5   11 1
   9    6    7 1
  10    6    9 2
  11    6   10 1
  12    7    8 1
  13    7   13 1
  14    7   14 1
  15    8   15 1
  16    8   16 1
  17   10   17 1
  18   11   18 1
  19   11   19 1
  20   11   20 1
  21   12   21 1
  22   13   22 1
  23   13   23 1

#	End of record

