#	Name: ASD01882721
#	Creating user name:	WinNT
#	Creation time:	15. 06. 2019 19:45

#	Modifying user name:	WinNT
#	Modification time:	15. 06. 2019 19:45

#	Program:	/corina/corina34_cracker 3.40 0067  02.08.2006

@<TRIPOS>MOLECULE
ASD01882721
  38   39    0    0    0
SMALL
NO_CHARGES


@<TRIPOS>ATOM
   1 C1            -0.0173     1.4248     0.0099 C.3     
   2 O2             0.0021    -0.0041     0.0020 O.3     
   3 C3            -1.2009    -0.6378     0.0101 C.ar    
   4 C4            -1.2526    -2.0226     0.0089 C.ar    
   5 C5            -2.3744     0.1042     0.0253 C.ar    
   6 C6            -3.5998    -0.5329     0.0340 C.ar    
   7 C7            -2.4800    -2.6663     0.0177 C.ar    
   8 N8            -2.8547    -4.0078     0.0182 N.am    
   9 C9            -3.6590    -1.9177     0.0276 C.ar    
  10 N10           -4.7145    -2.8297     0.0329 N.am    
  11 C11           -4.1993    -4.0736     0.0280 C.2     
  12 C12           -1.9408    -5.1527     0.0096 C.3     
  13 C13           -6.1399    -2.4918     0.0483 C.3     
  14 C14           -6.6499    -2.3664    -1.3887 C.3     
  15 C15           -6.4489    -3.6957    -2.1190 C.3     
  16 C16           -8.1386    -2.0135    -1.3726 C.3     
  17 C17           -5.8724    -1.2647    -2.1116 C.3     
  18 O18           -4.8505    -5.1016     0.0308 O.2     
  19 H19            1.0053     1.8021     0.0021 H       
  20 H20           -0.5445     1.7859    -0.8732 H       
  21 H21           -0.5275     1.7763     0.9067 H       
  22 H22           -0.3390    -2.5986     0.0009 H       
  23 H23           -2.3288     1.1832     0.0306 H       
  24 H24           -4.5107     0.0471     0.0462 H       
  25 H25           -1.7066    -5.4384     1.0351 H       
  26 H26           -2.4135    -5.9911    -0.5021 H       
  27 H27           -1.0224    -4.8806    -0.5105 H       
  28 H28           -6.6939    -3.2767     0.5633 H       
  29 H29           -6.2832    -1.5447     0.5686 H       
  30 H30           -7.0028    -4.4806    -1.6041 H       
  31 H31           -6.8122    -3.6064    -3.1428 H       
  32 H32           -5.3883    -3.9472    -2.1305 H       
  33 H33           -8.2819    -1.0665    -0.8523 H       
  34 H34           -8.5019    -1.9242    -2.3964 H       
  35 H35           -8.6925    -2.7984    -0.8576 H       
  36 H36           -4.8119    -1.5161    -2.1231 H       
  37 H37           -6.2358    -1.1754    -3.1354 H       
  38 H38           -6.0157    -0.3176    -1.5913 H       
@<TRIPOS>BOND
   1    1    2 1
   2    1   19 1
   3    1   20 1
   4    1   21 1
   5    2    3 1
   6    3    5 ar
   7    3    4 ar
   8    4    7 ar
   9    4   22 1
  10    5    6 ar
  11    5   23 1
  12    6    9 ar
  13    6   24 1
  14    7    9 ar
  15    7    8 1
  16    8   11 am
  17    8   12 1
  18    9   10 1
  19   10   11 am
  20   10   13 1
  21   11   18 2
  22   12   25 1
  23   12   26 1
  24   12   27 1
  25   13   14 1
  26   13   28 1
  27   13   29 1
  28   14   15 1
  29   14   16 1
  30   14   17 1
  31   15   30 1
  32   15   31 1
  33   15   32 1
  34   16   33 1
  35   16   34 1
  36   16   35 1
  37   17   36 1
  38   17   37 1
  39   17   38 1

#	End of record

