#	Name: ASD01813857
#	Creating user name:	WinNT
#	Creation time:	15. 06. 2019 19:31

#	Modifying user name:	WinNT
#	Modification time:	15. 06. 2019 19:31

#	Program:	/corina/corina34_cracker 3.40 0067  02.08.2006

@<TRIPOS>MOLECULE
ASD01813857
  54   57    0    0    0
SMALL
NO_CHARGES


@<TRIPOS>ATOM
   1 C1             0.0632     1.3495     0.2051 C.2     
   2 C2             0.0610    -0.0503     0.1381 C.2     
   3 C3             1.2475    -0.7226     0.0998 C.2     
   4 C4             2.4519     0.0001     0.1281 C.2     
   5 N5             2.4245     1.3667     0.1940 N.am    
   6 C6             1.2327     2.0278     0.2315 C.2     
   7 C7             3.6725    -0.6884     0.0889 C.2     
   8 C8             4.8482     0.0041     0.1164 C.2     
   9 C9             4.8162     1.4093     0.1836 C.2     
  10 C10            3.5728     2.0728     0.2222 C.2     
  11 O11            3.5358     3.2902     0.2801 O.2     
  12 C12            6.0638     2.1759     0.2148 C.2     
  13 O13            6.0263     3.5228     0.2793 O.3     
  14 O14            7.1337     1.5981     0.1824 O.2     
  15 C15            3.6864    -2.1936     0.0169 C.3     
  16 N16            3.8044    -2.6157    -1.3852 N.3     
  17 C17            4.0590    -4.0599    -1.4807 C.3     
  18 C18            4.0960    -4.4723    -2.9542 C.3     
  19 N19            5.1430    -3.7089    -3.6476 N.3     
  20 C20            4.8884    -2.2647    -3.5520 C.3     
  21 C21            4.8514    -1.8523    -2.0786 C.3     
  22 C22            5.2552    -4.1102    -4.9807 C.ar    
  23 C23            6.4853    -4.5114    -5.4856 C.ar    
  24 C24            6.5927    -4.9082    -6.8043 C.ar    
  25 C25            5.4775    -4.9058    -7.6216 C.ar    
  26 C26            4.2510    -4.5069    -7.1220 C.ar    
  27 C27            4.1355    -4.1145    -5.8032 C.ar    
  28 C28            7.9270    -5.3436    -7.3529 C.3     
  29 C29            4.4012    -5.9679    -3.0581 C.3     
  30 H30           -0.8723     1.8885     0.2313 H       
  31 H31           -0.8726    -0.5927     0.1174 H       
  32 H32            1.2608    -1.8013     0.0484 H       
  33 H33            1.2225     3.1065     0.2835 H       
  34 H34            5.7919    -0.5202     0.0872 H       
  35 H35            6.8754     3.9852     0.2976 H       
  36 H36            4.5345    -2.5767     0.5844 H       
  37 H37            2.7606    -2.5860     0.4378 H       
  38 H38            5.0162    -4.2921    -1.0139 H       
  39 H39            3.2638    -4.6038    -0.9708 H       
  40 H40            3.1298    -4.2651    -3.4142 H       
  41 H41            5.6836    -1.7208    -4.0620 H       
  42 H42            3.9312    -2.0325    -4.0189 H       
  43 H43            4.6339    -0.7868    -2.0045 H       
  44 H44            5.8176    -2.0595    -1.6186 H       
  45 H45            7.3570    -4.5128    -4.8479 H       
  46 H46            5.5644    -5.2158    -8.6524 H       
  47 H47            3.3820    -4.5059    -7.7632 H       
  48 H48            3.1774    -3.8035    -5.4136 H       
  49 H49            8.0456    -6.4177    -7.2102 H       
  50 H50            7.9759    -5.1109    -8.4167 H       
  51 H51            8.7247    -4.8173    -6.8288 H       
  52 H52            3.6818    -6.5279    -2.4607 H       
  53 H53            4.3310    -6.2815    -4.0997 H       
  54 H54            5.4084    -6.1598    -2.6880 H       
@<TRIPOS>BOND
   1    1    2 1
   2    1    6 2
   3    1   30 1
   4    2    3 2
   5    2   31 1
   6    3    4 1
   7    3   32 1
   8    4    5 1
   9    4    7 2
  10    5    6 1
  11    5   10 am
  12    6   33 1
  13    7    8 1
  14    7   15 1
  15    8    9 2
  16    8   34 1
  17    9   10 1
  18    9   12 1
  19   10   11 2
  20   12   13 1
  21   12   14 2
  22   13   35 1
  23   15   16 1
  24   15   36 1
  25   15   37 1
  26   16   17 1
  27   16   21 1
  28   17   18 1
  29   17   38 1
  30   17   39 1
  31   18   19 1
  32   18   29 1
  33   18   40 1
  34   19   20 1
  35   19   22 1
  36   20   21 1
  37   20   41 1
  38   20   42 1
  39   21   43 1
  40   21   44 1
  41   22   23 ar
  42   22   27 ar
  43   23   24 ar
  44   23   45 1
  45   24   25 ar
  46   24   28 1
  47   25   26 ar
  48   25   46 1
  49   26   27 ar
  50   26   47 1
  51   27   48 1
  52   28   49 1
  53   28   50 1
  54   28   51 1
  55   29   52 1
  56   29   53 1
  57   29   54 1

#	End of record

