#	Name: ASD01903049
#	Creating user name:	WinNT
#	Creation time:	15. 06. 2019 19:54

#	Modifying user name:	WinNT
#	Modification time:	15. 06. 2019 19:54

#	Program:	/corina/corina34_cracker 3.40 0067  02.08.2006

@<TRIPOS>MOLECULE
ASD01903049
  28   30    0    0    0
SMALL
NO_CHARGES


@<TRIPOS>ATOM
   1 C1            -0.0162     1.3110     0.0196 C.2     
   2 N2             0.0006    -0.0034     0.0047 N.2     
   3 C3            -1.1695    -0.6134     0.0259 C.2     
   4 N4            -2.2419     0.1364     0.0596 N.2     
   5 S5            -1.6834     1.7412     0.0709 S.3     
   6 C6            -1.2659    -2.0946     0.0114 C.2     
   7 N7             1.0728     2.1661     0.0034 N.pl3   
   8 C8            -2.4163    -2.8280     0.0307 C.2     
   9 N9            -2.0700    -4.1306     0.0068 N.pl3   
  10 N10           -0.6726    -4.2115    -0.0281 N.2     
  11 C11           -0.1865    -2.9986    -0.0309 C.2     
  12 C12           -3.8199    -2.2810     0.0718 C.3     
  13 C13            0.8768     3.5407    -0.0924 C.ar    
  14 N14           -0.3449     4.0183    -0.2720 N.ar    
  15 C15           -0.5742     5.3142    -0.3675 C.ar    
  16 C16            0.4603     6.2243    -0.2828 C.ar    
  17 C17            1.7571     5.7644    -0.0945 C.ar    
  18 C18            1.9656     4.4008     0.0072 C.ar    
  19 H19            1.9722     1.8072     0.0589 H       
  20 H20           -2.6831    -4.8823     0.0131 H       
  21 H21            0.8607    -2.7353    -0.0552 H       
  22 H22           -4.1835    -2.1366    -0.9456 H       
  23 H23           -4.4690    -2.9846     0.5931 H       
  24 H24           -3.8225    -1.3262     0.5975 H       
  25 H25           -1.5842     5.6674    -0.5142 H       
  26 H26            0.2632     7.2832    -0.3624 H       
  27 H27            2.5836     6.4561    -0.0250 H       
  28 H28            2.9611     4.0088     0.1543 H       
@<TRIPOS>BOND
   1    1    2 2
   2    1    7 1
   3    1    5 1
   4    2    3 1
   5    3    4 2
   6    3    6 1
   7    4    5 1
   8    6    8 2
   9    6   11 1
  10    7   13 1
  11    7   19 1
  12    8    9 1
  13    8   12 1
  14    9   10 1
  15    9   20 1
  16   10   11 2
  17   11   21 1
  18   12   22 1
  19   12   23 1
  20   12   24 1
  21   13   14 ar
  22   13   18 ar
  23   14   15 ar
  24   15   16 ar
  25   15   25 1
  26   16   17 ar
  27   16   26 1
  28   17   18 ar
  29   17   27 1
  30   18   28 1

#	End of record

