#	Name: ASD04590388
#	Creating user name:	WinNT
#	Creation time:	15. 06. 2019 20:50

#	Modifying user name:	WinNT
#	Modification time:	15. 06. 2019 20:50

#	Program:	/corina/corina34_cracker 3.40 0067  02.08.2006

@<TRIPOS>MOLECULE
ASD04590388
  55   59    0    0    0
SMALL
NO_CHARGES


@<TRIPOS>ATOM
   1 C1            -0.0163     1.3877     0.0040 C.ar    
   2 C2            -0.0279     0.0118    -0.2078 C.ar    
   3 C3             2.2841     0.0903    -0.8596 C.ar    
   4 C4             2.2872     1.4793    -0.6438 C.ar    
   5 C5             1.1330     2.1174    -0.2122 C.ar    
   6 N6             3.5289    -0.2543    -1.2715 N.2     
   7 C7             4.2878     0.8137    -1.3231 C.2     
   8 N8             3.5664     1.9133    -0.9440 N.pl3   
   9 C9             5.7085     0.8279    -1.7288 C.2     
  10 C10            6.4717    -0.2953    -2.1232 C.2     
  11 C11            7.7226     0.1370    -2.4157 C.2     
  12 N12            7.7562     1.4808    -2.2162 N.pl3   
  13 N13            6.4860     1.8910    -1.7922 N.2     
  14 N14            6.0155    -1.6214    -2.1977 N.am    
  15 C15            6.8532    -2.6011    -2.5913 C.2     
  16 O16            8.0041    -2.3368    -2.8819 O.2     
  17 C17            6.3739    -3.9941    -2.6696 C.ar    
  18 C18            1.1114    -0.6388    -0.6366 C.ar    
  19 C19            6.0255    -6.1409    -1.6398 C.ar    
  20 C20            5.4739    -6.6131    -2.8170 C.ar    
  21 C21            5.3734    -5.7883    -3.9227 C.ar    
  22 C22            5.8194    -4.4817    -3.8580 C.ar    
  23 F23            5.7199    -3.6775    -4.9390 F       
  24 C24            6.4766    -4.8370    -1.5576 C.ar    
  25 F25            7.0155    -4.3779    -0.4069 F       
  26 O26           -1.1686    -0.6957     0.0095 O.3     
  27 C27           -1.0831    -2.1171    -0.1100 C.3     
  28 C28           -2.1863    -2.7684     0.7287 C.3     
  29 C29           -2.1279    -4.2870     0.5488 C.3     
  30 N30           -2.3059    -4.6203    -0.8702 N.3     
  31 C31           -1.2315    -4.0450    -1.6896 C.3     
  32 C32           -1.2631    -2.5192    -1.5764 C.3     
  33 C33           -2.3938    -6.0739    -1.0626 C.3     
  34 H34           -0.9146     1.8872     0.3356 H       
  35 H35            1.1350     3.1846    -0.0463 H       
  36 H36            3.8910     2.8261    -0.8950 H       
  37 H37            8.5463    -0.4774    -2.7480 H       
  38 H38            8.5257     2.0566    -2.3476 H       
  39 H39            5.0975    -1.8322    -1.9659 H       
  40 H40            1.0976    -1.7064    -0.7988 H       
  41 H41            6.1002    -6.7917    -0.7812 H       
  42 H42            5.1237    -7.6331    -2.8745 H       
  43 H43            4.9416    -6.1651    -4.8381 H       
  44 H44           -0.1091    -2.4545     0.2443 H       
  45 H45           -2.0386    -2.5205     1.7799 H       
  46 H46           -3.1583    -2.4001     0.4006 H       
  47 H47           -1.1608    -4.6563     0.8900 H       
  48 H48           -2.9212    -4.7528     1.1335 H       
  49 H49           -0.2686    -4.4154    -1.3378 H       
  50 H50           -1.3737    -4.3351    -2.7306 H       
  51 H51           -2.2206    -2.1470    -1.9409 H       
  52 H52           -0.4559    -2.0933    -2.1723 H       
  53 H53           -3.2440    -6.4638    -0.5028 H       
  54 H54           -2.5254    -6.2929    -2.1223 H       
  55 H55           -1.4774    -6.5438    -0.7055 H       
@<TRIPOS>BOND
   1    1    2 ar
   2    1    5 ar
   3    1   34 1
   4    2   18 ar
   5    2   26 1
   6    3    4 ar
   7    3    6 1
   8    3   18 ar
   9    4    5 ar
  10    4    8 1
  11    5   35 1
  12    6    7 2
  13    7    8 1
  14    7    9 1
  15    8   36 1
  16    9   10 1
  17    9   13 2
  18   10   11 2
  19   10   14 1
  20   11   12 1
  21   11   37 1
  22   12   13 1
  23   12   38 1
  24   14   15 am
  25   14   39 1
  26   15   16 2
  27   15   17 1
  28   17   24 ar
  29   17   22 ar
  30   18   40 1
  31   19   20 ar
  32   19   24 ar
  33   19   41 1
  34   20   21 ar
  35   20   42 1
  36   21   22 ar
  37   21   43 1
  38   22   23 1
  39   24   25 1
  40   26   27 1
  41   27   28 1
  42   27   32 1
  43   27   44 1
  44   28   29 1
  45   28   45 1
  46   28   46 1
  47   29   30 1
  48   29   47 1
  49   29   48 1
  50   30   31 1
  51   30   33 1
  52   31   32 1
  53   31   49 1
  54   31   50 1
  55   32   51 1
  56   32   52 1
  57   33   53 1
  58   33   54 1
  59   33   55 1

#	End of record

