#	Name: ASD01811236
#	Creating user name:	WinNT
#	Creation time:	15. 06. 2019 19:26

#	Modifying user name:	WinNT
#	Modification time:	15. 06. 2019 19:26

#	Program:	/corina/corina34_cracker 3.40 0067  02.08.2006

@<TRIPOS>MOLECULE
ASD01811236
  38   38    0    0    0
SMALL
NO_CHARGES


@<TRIPOS>ATOM
   1 C1            -0.0826     1.4679    -0.1630 C.2     
   2 C2            -0.0290    -0.0063    -0.0816 C.ar    
   3 C3             1.2022    -0.6659    -0.1247 C.ar    
   4 C4             1.2530    -2.0431    -0.0493 C.ar    
   5 C5             0.0893    -2.7778     0.0696 C.ar    
   6 C6            -1.1467    -2.1315     0.1137 C.ar    
   7 C7            -1.2058    -0.7424     0.0440 C.ar    
   8 O8             0.9460     2.1139    -0.1641 O.2     
   9 O9            -1.2721     2.0953    -0.2415 O.3     
  10 C10            2.4766     0.1279    -0.2542 C.3     
  11 C11            0.1547    -4.2812     0.1513 C.3     
  12 C12            0.7065    -4.9439    -1.1220 C.3     
  13 C13            1.4650    -5.9095    -0.1961 C.3     
  14 C14            1.4078    -4.8050     0.8725 C.3     
  15 C15           -2.3929    -2.9216     0.2403 C.2     
  16 N16           -2.6805    -3.9065    -0.6792 N.pl3   
  17 N17           -3.2169    -2.6855     1.2207 N.2     
  18 C18           -1.2489     3.5450    -0.3186 C.3     
  19 H19            2.2068    -2.5485    -0.0837 H       
  20 H20           -2.1598    -0.2376     0.0826 H       
  21 H21            2.7866     0.4805     0.7295 H       
  22 H22            3.2575    -0.5048    -0.6761 H       
  23 H23            2.3075     0.9822    -0.9098 H       
  24 H24           -0.7741    -4.7265     0.5079 H       
  25 H25           -0.0582    -5.4301    -1.7277 H       
  26 H26            1.3596    -4.2941    -1.7045 H       
  27 H27            0.8952    -6.8008     0.0663 H       
  28 H28            2.4756    -6.1366    -0.5356 H       
  29 H29            2.2526    -4.1172     0.8352 H       
  30 H30            1.2093    -5.1791     1.8768 H       
  31 H31           -2.0668    -4.0824    -1.4095 H       
  32 H32           -3.4967    -4.4240    -0.5964 H       
  33 H33           -4.0332    -3.2030     1.3036 H       
  34 H34           -0.7631     3.9484     0.5698 H       
  35 H35           -0.6962     3.8528    -1.2063 H       
  36 H36           -2.2699     3.9221    -0.3774 H       
  37 Cl37           8.2575     8.9484     6.8768 Cl      
  38 H38            8.2575    10.3184     6.8768 H       
@<TRIPOS>BOND
   1    1    2 1
   2    1    8 2
   3    1    9 1
   4    2    3 ar
   5    2    7 ar
   6    3    4 ar
   7    3   10 1
   8    4    5 ar
   9    4   19 1
  10    5    6 ar
  11    5   11 1
  12    6    7 ar
  13    6   15 1
  14    7   20 1
  15    9   18 1
  16   10   21 1
  17   10   22 1
  18   10   23 1
  19   11   12 1
  20   11   14 1
  21   11   24 1
  22   12   13 1
  23   12   25 1
  24   12   26 1
  25   13   14 1
  26   13   27 1
  27   13   28 1
  28   14   29 1
  29   14   30 1
  30   15   16 1
  31   15   17 2
  32   16   31 1
  33   16   32 1
  34   17   33 1
  35   18   34 1
  36   18   35 1
  37   18   36 1
  38   37   38 1

#	End of record

