#	Name: ASD03320072
#	Creating user name:	WinNT
#	Creation time:	15. 06. 2019 20:36

#	Modifying user name:	WinNT
#	Modification time:	15. 06. 2019 20:36

#	Program:	/corina/corina34_cracker 3.40 0067  02.08.2006

@<TRIPOS>MOLECULE
ASD03320072
  43   45    0    0    0
SMALL
NO_CHARGES


@<TRIPOS>ATOM
   1 C1            -0.0181     1.4704     0.0148 C.2     
   2 C2             0.0015    -0.0045     0.0117 C.ar    
   3 C3             1.2208    -0.6889     0.0012 C.ar    
   4 C4             1.2355    -2.0654    -0.0011 C.ar    
   5 C5             0.0372    -2.7760     0.0065 C.ar    
   6 C6            -1.1776    -2.0971     0.0165 C.ar    
   7 C7            -1.1987    -0.7208     0.0252 C.ar    
   8 O8             1.0269     2.0924     0.0081 O.2     
   9 N9            -1.1941     2.1287     0.0193 N.am    
  10 C10           -1.2149     3.5243     0.1327 C.ar    
  11 C11           -2.1832     4.2613    -0.5363 C.ar    
  12 C12           -2.2030     5.6375    -0.4240 C.ar    
  13 C13           -1.2559     6.2837     0.3568 C.ar    
  14 C14           -0.2882     5.5482     1.0254 C.ar    
  15 C15           -0.2706     4.1715     0.9186 C.ar    
  16 O16           -1.2757     7.6389     0.4665 O.3     
  17 C17           -0.2708     8.2381     1.2869 C.3     
  18 F18            0.9944     7.9204     0.7815 F       
  19 F19           -0.4371     9.6272     1.2882 F       
  20 F20           -0.3860     7.7534     2.5942 F       
  21 N21            0.0550    -4.1669     0.0037 N.3     
  22 C22           -0.6174    -4.7064     1.1998 C.3     
  23 C23           -1.7453    -5.6383     0.7090 C.3     
  24 C24           -1.2860    -6.0184    -0.7233 C.3     
  25 C25           -0.6197    -4.7029    -1.1977 C.3     
  26 O26           -1.8360    -6.8005     1.5356 O.3     
  27 Br27           2.8835    -2.9926    -0.0153 Br      
  28 H28            2.1498    -0.1383    -0.0054 H       
  29 H29           -2.1048    -2.6508     0.0217 H       
  30 H30           -2.1419    -0.1948     0.0375 H       
  31 H31           -2.0262     1.6358    -0.0560 H       
  32 H32           -2.9205     3.7583    -1.1445 H       
  33 H33           -2.9559     6.2108    -0.9445 H       
  34 H34            0.4489     6.0520     1.6330 H       
  35 H35            0.4801     3.5987     1.4428 H       
  36 H36            0.0942    -5.2708     1.8024 H       
  37 H37           -1.0395    -3.8910     1.7874 H       
  38 H38           -2.6977    -5.1090     0.6806 H       
  39 H39           -0.5642    -6.8348    -0.6982 H       
  40 H40           -2.1392    -6.2729    -1.3522 H       
  41 H41           -1.3747    -4.0019    -1.5534 H       
  42 H42            0.1087    -4.9080    -1.9822 H       
  43 H43           -2.5300    -7.4191     1.2696 H       
@<TRIPOS>BOND
   1    1    2 1
   2    1    8 2
   3    1    9 am
   4    2    3 ar
   5    2    7 ar
   6    3    4 ar
   7    3   28 1
   8    4    5 ar
   9    4   27 1
  10    5    6 ar
  11    5   21 1
  12    6    7 ar
  13    6   29 1
  14    7   30 1
  15    9   10 1
  16    9   31 1
  17   10   11 ar
  18   10   15 ar
  19   11   12 ar
  20   11   32 1
  21   12   13 ar
  22   12   33 1
  23   13   14 ar
  24   13   16 1
  25   14   15 ar
  26   14   34 1
  27   15   35 1
  28   16   17 1
  29   17   18 1
  30   17   19 1
  31   17   20 1
  32   21   22 1
  33   21   25 1
  34   22   23 1
  35   22   36 1
  36   22   37 1
  37   23   24 1
  38   23   26 1
  39   23   38 1
  40   24   25 1
  41   24   39 1
  42   24   40 1
  43   25   41 1
  44   25   42 1
  45   26   43 1

#	End of record

