#	Name: ASD01148352
#	Creating user name:	WinNT
#	Creation time:	15. 06. 2019 19:02

#	Modifying user name:	WinNT
#	Modification time:	15. 06. 2019 19:02

#	Program:	/corina/corina34_cracker 3.40 0067  02.08.2006

@<TRIPOS>MOLECULE
ASD01148352
  46   48    0    0    0
SMALL
NO_CHARGES


@<TRIPOS>ATOM
   1 C1            -0.4100     1.8306    -0.0436 C.ar    
   2 C2            -0.4710     0.4513     0.0164 C.ar    
   3 C3             0.6949    -0.2897     0.0957 C.ar    
   4 C4             1.9209     0.3507     0.1148 C.ar    
   5 C5             1.9806     1.7304     0.0547 C.ar    
   6 C6             0.8157     2.4701    -0.0245 C.ar    
   7 C7             3.3162     2.4283     0.0755 C.3     
   8 O8             4.3313     1.6188    -0.5519 O.3     
   9 C9             3.3021     3.6784    -0.8362 C.3     
  10 C10            3.8441     3.1376    -2.1457 C.2     
  11 N11            4.3962     1.9940    -1.9135 N.2     
  12 C12            3.7554     3.8043    -3.4596 C.ar    
  13 C13            4.2996     3.1922    -4.5919 C.ar    
  14 C14            3.1224     5.0446    -3.5722 C.ar    
  15 C15            3.0396     5.6665    -4.7976 C.ar    
  16 C16            3.5887     5.0571    -5.9286 C.ar    
  17 C17            4.2169     3.8138    -5.8170 C.ar    
  18 C18            3.5000     5.7243    -7.2435 C.2     
  19 O19            4.0722     5.2505    -8.2051 O.2     
  20 N20            2.7844     6.8587    -7.3766 N.am    
  21 C21            4.8096     3.1567    -7.0368 C.3     
  22 C22            3.7160     2.7969     1.5056 C.3     
  23 F23            3.7876     1.6364     2.2836 F       
  24 F24            4.9648     3.4275     1.4928 F       
  25 F25            2.7614     3.6639     2.0480 F       
  26 Cl26           0.6190    -2.0224     0.1718 Cl      
  27 C27            2.7035     7.4674    -8.5764 C.2     
  28 O28            1.9888     8.6003    -8.7093 O.3     
  29 C29            1.9457     9.2012   -10.0305 C.3     
  30 O30            3.2754     6.9938    -9.5376 O.2     
  31 H31           -1.3197     2.4089    -0.1100 H       
  32 H32           -1.4285    -0.0481     0.0019 H       
  33 H33            2.8312    -0.2272     0.1771 H       
  34 H34            0.8629     3.5481    -0.0715 H       
  35 H35            2.2865     4.0533    -0.9632 H       
  36 H36            3.9554     4.4549    -0.4383 H       
  37 H37            4.7853     2.2314    -4.5055 H       
  38 H38            2.6976     5.5155    -2.6980 H       
  39 H39            2.5500     6.6251    -4.8847 H       
  40 H40            2.3276     7.2369    -6.6090 H       
  41 H41            5.8064     3.5588    -7.2179 H       
  42 H42            4.8758     2.0810    -6.8741 H       
  43 H43            4.1753     3.3552    -7.9008 H       
  44 H44            1.5093     8.4950   -10.7368 H       
  45 H45            1.3381    10.1056    -9.9986 H       
  46 H46            2.9573     9.4542   -10.3477 H       
@<TRIPOS>BOND
   1    1    2 ar
   2    1    6 ar
   3    1   31 1
   4    2    3 ar
   5    2   32 1
   6    3    4 ar
   7    3   26 1
   8    4    5 ar
   9    4   33 1
  10    5    6 ar
  11    5    7 1
  12    6   34 1
  13    7    8 1
  14    7    9 1
  15    7   22 1
  16    8   11 1
  17    9   10 1
  18    9   35 1
  19    9   36 1
  20   10   11 2
  21   10   12 1
  22   12   13 ar
  23   12   14 ar
  24   13   17 ar
  25   13   37 1
  26   14   15 ar
  27   14   38 1
  28   15   16 ar
  29   15   39 1
  30   16   17 ar
  31   16   18 1
  32   17   21 1
  33   18   19 2
  34   18   20 am
  35   20   27 am
  36   20   40 1
  37   21   41 1
  38   21   42 1
  39   21   43 1
  40   22   23 1
  41   22   24 1
  42   22   25 1
  43   27   28 1
  44   27   30 2
  45   28   29 1
  46   29   44 1
  47   29   45 1
  48   29   46 1

#	End of record

