#	Name: ASD01410323
#	Creating user name:	WinNT
#	Creation time:	15. 06. 2019 19:17

#	Modifying user name:	WinNT
#	Modification time:	15. 06. 2019 19:17

#	Program:	/corina/corina34_cracker 3.40 0067  02.08.2006

@<TRIPOS>MOLECULE
ASD01410323
  72   75    0    0    0
SMALL
NO_CHARGES


@<TRIPOS>ATOM
   1 O1             0.0756     0.4103     1.0644 O.3     
   2 C2             0.2035    -0.9191     0.9514 C.2     
   3 C3             1.5204    -1.2103     0.7693 C.2     
   4 C4             2.2183     0.0819     0.7787 C.2     
   5 C5             1.2694     1.0142     0.9628 C.2     
   6 N6             3.0696    -2.8802    -0.3422 N.pl3   
   7 C7             2.1232    -2.5494     0.5977 C.2     
   8 C8             1.8290    -3.6445     1.3445 C.2     
   9 C9             2.6158    -4.7194     0.8666 C.ar    
  10 C10            3.3874    -4.2168    -0.2013 C.ar    
  11 C11            2.7348    -6.0651     1.2439 C.ar    
  12 C12            3.5980    -6.8839     0.5835 C.ar    
  13 C13            4.3739    -6.3913    -0.4770 C.ar    
  14 C14            4.2626    -5.0572    -0.8690 C.ar    
  15 C15           -0.2485    -4.7292     2.1550 C.3     
  16 C16           -1.2522    -4.7903     3.3081 C.3     
  17 C17           -0.5297    -5.2042     4.5917 C.3     
  18 C18            0.5591    -4.1797     4.9171 C.3     
  19 C19            1.5628    -4.1186     3.7639 C.3     
  20 C20            0.8404    -3.7047     2.4804 C.3     
  21 C21            3.6424    -1.9671    -1.3343 C.3     
  22 C22            4.8689    -1.3063    -0.7597 C.2     
  23 O23            5.2290    -1.5719     0.3675 O.2     
  24 N24            5.5655    -0.4201    -1.4985 N.am    
  25 C25            5.1305    -0.0992    -2.8601 C.3     
  26 C26            6.7578     0.2224    -0.9399 C.3     
  27 C27            7.9908    -0.6253    -1.2593 C.3     
  28 N28            9.1864     0.0188    -0.6992 N.3     
  29 C29           10.3504    -0.8739    -0.7763 C.3     
  30 C30            9.4582     1.2975    -1.3693 C.3     
  31 C31           10.4397     2.1157    -0.5278 C.3     
  32 C32           10.2414    -1.9489     0.3069 C.3     
  33 C33            5.3050    -7.2884    -1.1834 C.2     
  34 O34            5.9782    -6.8643    -2.1021 O.2     
  35 O35            5.4103    -8.5794    -0.8107 O.3     
  36 H36           -0.6018    -1.6373     0.9975 H       
  37 H37            3.2790     0.2484     0.6614 H       
  38 H38            1.4399     2.0792     1.0195 H       
  39 H39            2.1413    -6.4516     2.0593 H       
  40 H40            3.6867    -7.9193     0.8775 H       
  41 H41            4.8603    -4.6801    -1.6856 H       
  42 H42            0.2056    -5.7103     2.0161 H       
  43 H43           -0.7632    -4.4343     1.2405 H       
  44 H44           -1.7062    -3.8091     3.4470 H       
  45 H45           -2.0279    -5.5201     3.0764 H       
  46 H46           -1.2448    -5.2477     5.4133 H       
  47 H47           -0.0756    -6.1853     4.4529 H       
  48 H48            0.1051    -3.1986     5.0559 H       
  49 H49            1.0739    -4.4746     5.8315 H       
  50 H50            2.3386    -3.3888     3.9957 H       
  51 H51            2.0169    -5.0998     3.6251 H       
  52 H52            0.3863    -2.7236     2.6192 H       
  53 H53            3.9166    -2.5274    -2.2282 H       
  54 H54            2.9073    -1.2054    -1.5942 H       
  55 H55            4.4399     0.7436    -2.8318 H       
  56 H56            5.9977     0.1619    -3.4666 H       
  57 H57            4.6302    -0.9644    -3.2951 H       
  58 H58            6.8752     1.2137    -1.3776 H       
  59 H59            6.6491     0.3129     0.1409 H       
  60 H60            7.8735    -1.6167    -0.8216 H       
  61 H61            8.0995    -0.7159    -2.3400 H       
  62 H62           10.3801    -1.3483    -1.7573 H       
  63 H63           11.2621    -0.2962    -0.6244 H       
  64 H64            9.8917     1.1081    -2.3513 H       
  65 H65            8.5273     1.8527    -1.4840 H       
  66 H66           11.4013     1.6038    -0.4909 H       
  67 H67           10.5694     3.1007    -0.9763 H       
  68 H68           10.0476     2.2257     0.4832 H       
  69 H69           10.2983    -1.4813     1.2899 H       
  70 H70            9.2893    -2.4701     0.2071 H       
  71 H71           11.0589    -2.6612     0.1955 H       
  72 H72            6.0345    -9.1292    -1.3039 H       
@<TRIPOS>BOND
   1    1    2 1
   2    1    5 1
   3    2    3 2
   4    2   36 1
   5    3    4 1
   6    3    7 1
   7    4    5 2
   8    4   37 1
   9    5   38 1
  10    6    7 1
  11    6   21 1
  12    6   10 1
  13    7    8 2
  14    8    9 1
  15    8   20 1
  16    9   10 ar
  17    9   11 ar
  18   10   14 ar
  19   11   12 ar
  20   11   39 1
  21   12   13 ar
  22   12   40 1
  23   13   14 ar
  24   13   33 1
  25   14   41 1
  26   15   16 1
  27   15   20 1
  28   15   42 1
  29   15   43 1
  30   16   17 1
  31   16   44 1
  32   16   45 1
  33   17   18 1
  34   17   46 1
  35   17   47 1
  36   18   19 1
  37   18   48 1
  38   18   49 1
  39   19   20 1
  40   19   50 1
  41   19   51 1
  42   20   52 1
  43   21   22 1
  44   21   53 1
  45   21   54 1
  46   22   23 2
  47   22   24 am
  48   24   25 1
  49   24   26 1
  50   25   55 1
  51   25   56 1
  52   25   57 1
  53   26   27 1
  54   26   58 1
  55   26   59 1
  56   27   28 1
  57   27   60 1
  58   27   61 1
  59   28   29 1
  60   28   30 1
  61   29   32 1
  62   29   62 1
  63   29   63 1
  64   30   31 1
  65   30   64 1
  66   30   65 1
  67   31   66 1
  68   31   67 1
  69   31   68 1
  70   32   69 1
  71   32   70 1
  72   32   71 1
  73   33   34 2
  74   33   35 1
  75   35   72 1

#	End of record

