#	Name: ASD03180048
#	Creating user name:	WinNT
#	Creation time:	15. 06. 2019 20:33

#	Modifying user name:	WinNT
#	Modification time:	15. 06. 2019 20:33

#	Program:	/corina/corina34_cracker 3.40 0067  02.08.2006

@<TRIPOS>MOLECULE
ASD03180048
  41   43    0    0    0
SMALL
NO_CHARGES


@<TRIPOS>ATOM
   1 C1             0.4777    -0.1653     1.5839 C.ar    
   2 C2             0.1014    -0.6164     0.3320 C.ar    
   3 C3             0.8597    -0.2952    -0.7790 C.ar    
   4 C4             1.9956     0.4780    -0.6415 C.ar    
   5 C5             2.3763     0.9333     0.6146 C.ar    
   6 C6             1.6125     0.6084     1.7285 C.ar    
   7 N7             3.5255     1.7156     0.7573 N.pl3   
   8 C8             3.4468     3.0933     0.6262 C.2     
   9 C9             4.1701     5.2141     0.6211 C.2     
  10 N10            4.4343     3.9186     0.7887 N.2     
  11 S11            1.9928     3.9930     0.2060 S.3     
  12 C12            2.8959     5.5029     0.2984 C.2     
  13 C13            5.2045     6.2599     0.7763 C.2     
  14 S14            4.9648     7.9945     0.5798 S.3     
  15 C15            6.6124     8.2732     0.9408 C.2     
  16 N16            7.2169     7.1568     1.1722 N.2     
  17 C17            6.4996     6.0563     1.0997 C.2     
  18 C18            7.2662     9.6303     0.9825 C.3     
  19 C19            7.0747     4.6863     1.3515 C.3     
  20 C20           -1.1376    -1.4604     0.1781 C.3     
  21 C21            2.0215     1.1000     3.0931 C.3     
  22 C22            2.8216     0.8271    -1.8527 C.3     
  23 H23           -0.1190    -0.4145     2.4489 H       
  24 H24            0.5634    -0.6497    -1.7551 H       
  25 H25            4.3783     1.2945     0.9482 H       
  26 H26            2.4959     6.4909     0.1244 H       
  27 H27            7.1915    10.0388     1.9903 H       
  28 H28            8.3162     9.5364     0.7055 H       
  29 H29            6.7639    10.2973     0.2819 H       
  30 H30            7.4489     4.2717     0.4155 H       
  31 H31            7.8925     4.7617     2.0682 H       
  32 H32            6.2986     4.0347     1.7529 H       
  33 H33           -1.9980    -0.8143     0.0037 H       
  34 H34           -1.0137    -2.1368    -0.6676 H       
  35 H35           -1.2972    -2.0406     1.0870 H       
  36 H36            2.7537     0.4155     3.5215 H       
  37 H37            2.4611     2.0934     3.0047 H       
  38 H38            1.1456     1.1465     3.7401 H       
  39 H39            2.4128     1.7196    -2.3263 H       
  40 H40            3.8509     1.0165    -1.5482 H       
  41 H41            2.7986    -0.0023    -2.5595 H       
@<TRIPOS>BOND
   1    1    2 ar
   2    1    6 ar
   3    1   23 1
   4    2    3 ar
   5    2   20 1
   6    3    4 ar
   7    3   24 1
   8    4    5 ar
   9    4   22 1
  10    5    6 ar
  11    5    7 1
  12    6   21 1
  13    7    8 1
  14    7   25 1
  15    8   11 1
  16    8   10 2
  17    9   10 1
  18    9   12 2
  19    9   13 1
  20   11   12 1
  21   12   26 1
  22   13   14 1
  23   13   17 2
  24   14   15 1
  25   15   16 2
  26   15   18 1
  27   16   17 1
  28   17   19 1
  29   18   27 1
  30   18   28 1
  31   18   29 1
  32   19   30 1
  33   19   31 1
  34   19   32 1
  35   20   33 1
  36   20   34 1
  37   20   35 1
  38   21   36 1
  39   21   37 1
  40   21   38 1
  41   22   39 1
  42   22   40 1
  43   22   41 1

#	End of record

