#	Name: ASD02560556
#	Creating user name:	WinNT
#	Creation time:	15. 06. 2019 20:25

#	Modifying user name:	WinNT
#	Modification time:	15. 06. 2019 20:25

#	Program:	/corina/corina34_cracker 3.40 0067  02.08.2006

@<TRIPOS>MOLECULE
ASD02560556
  56   60    0    0    0
SMALL
NO_CHARGES


@<TRIPOS>ATOM
   1 N1            -0.0191     1.2805     0.0820 N.2     
   2 N2            -0.0010    -0.0042     0.0570 N.2     
   3 C3             1.1979     1.7476     0.0504 C.2     
   4 N4             2.0453     0.6720     0.0018 N.pl3   
   5 C5             1.2383    -0.4337     0.0077 C.2     
   6 S6             1.7636    -2.1149    -0.0412 S.3     
   7 C7             0.1568    -2.9474    -0.0038 C.3     
   8 C8             0.3635    -4.4398    -0.0386 C.2     
   9 O9             1.4864    -4.8956    -0.0842 O.2     
  10 N10           -0.6997    -5.2679    -0.0191 N.am    
  11 C11            3.4446     0.6983    -0.0449 C.ar    
  12 Br12           1.7000     3.5707     0.0683 Br      
  13 C13            4.1787     0.6888     1.1202 C.ar    
  14 C14            5.5701     0.7148     1.0851 C.ar    
  15 C15            6.2427     0.7497    -0.0981 C.ar    
  16 C16            5.5310     0.7601    -1.3096 C.ar    
  17 C17            4.1145     0.7290    -1.2860 C.ar    
  18 C18           -0.5129    -6.6452    -0.1332 C.ar    
  19 C19           -1.5316    -7.4444    -0.6462 C.ar    
  20 C20           -1.3501    -8.8048    -0.7601 C.ar    
  21 C21           -0.1412    -9.3828    -0.3603 C.ar    
  22 C22            0.8788    -8.5770     0.1537 C.ar    
  23 C23            0.6924    -7.2169     0.2603 C.ar    
  24 C24            0.0570   -10.8391    -0.4801 C.2     
  25 O25           -0.8307   -11.5383    -0.9267 O.2     
  26 Cl26          -3.0318    -6.7251    -1.1420 Cl      
  27 O27            1.2226   -11.3944    -0.0944 O.3     
  28 C28            7.7494     0.7778    -0.1085 C.3     
  29 C29            8.4389     1.9531     0.5875 C.3     
  30 C30            8.4692     0.5622     1.2243 C.3     
  31 C31            3.4037     0.7384    -2.4960 C.ar    
  32 C32            6.2000     0.7954    -2.5459 C.ar    
  33 C33            5.4827     0.8042    -3.7012 C.ar    
  34 C34            4.0849     0.7774    -3.6794 C.ar    
  35 O35            3.3954     0.7866    -4.8505 O.3     
  36 C36            4.1631     0.8239    -6.0551 C.3     
  37 H37           -0.3723    -2.6751     0.9094 H       
  38 H38           -0.4310    -2.6417    -0.8693 H       
  39 H39           -1.5948    -4.9059     0.0743 H       
  40 H40            3.6692     0.6612     2.0721 H       
  41 H41            6.1251     0.7074     2.0116 H       
  42 H42           -2.1405    -9.4245    -1.1572 H       
  43 H43            1.8137    -9.0203     0.4633 H       
  44 H44            1.4806    -6.5941     0.6570 H       
  45 H45            1.3057   -12.3529    -0.1920 H       
  46 H46            8.2209     0.3775    -1.0060 H       
  47 H47            9.3642     2.3257     0.1480 H       
  48 H48            7.8027     2.7059     1.0528 H       
  49 H49            7.8530     0.4001     2.1087 H       
  50 H50            9.4144     0.0198     1.2039 H       
  51 H51            2.3239     0.7147    -2.4915 H       
  52 H52            7.2794     0.8160    -2.5777 H       
  53 H53            6.0000     0.8314    -4.6489 H       
  54 H54            4.8084    -0.0533    -6.1021 H       
  55 H55            3.4918     0.8276    -6.9138 H       
  56 H56            4.7748     1.7260    -6.0683 H       
@<TRIPOS>BOND
   1    1    2 1
   2    1    3 2
   3    2    5 2
   4    3    4 1
   5    3   12 1
   6    4    5 1
   7    4   11 1
   8    5    6 1
   9    6    7 1
  10    7    8 1
  11    7   37 1
  12    7   38 1
  13    8    9 2
  14    8   10 am
  15   10   18 1
  16   10   39 1
  17   11   13 ar
  18   11   17 ar
  19   13   14 ar
  20   13   40 1
  21   14   15 ar
  22   14   41 1
  23   15   16 ar
  24   15   28 1
  25   16   17 ar
  26   16   32 ar
  27   17   31 ar
  28   18   19 ar
  29   18   23 ar
  30   19   20 ar
  31   19   26 1
  32   20   21 ar
  33   20   42 1
  34   21   22 ar
  35   21   24 1
  36   22   23 ar
  37   22   43 1
  38   23   44 1
  39   24   25 2
  40   24   27 1
  41   27   45 1
  42   28   29 1
  43   28   30 1
  44   28   46 1
  45   29   30 1
  46   29   47 1
  47   29   48 1
  48   30   49 1
  49   30   50 1
  50   31   34 ar
  51   31   51 1
  52   32   33 ar
  53   32   52 1
  54   33   34 ar
  55   33   53 1
  56   34   35 1
  57   35   36 1
  58   36   54 1
  59   36   55 1
  60   36   56 1

#	End of record

