#	Name: ASD01730093
#	Creating user name:	WinNT
#	Creation time:	15. 06. 2019 19:23

#	Modifying user name:	WinNT
#	Modification time:	15. 06. 2019 19:23

#	Program:	/corina/corina34_cracker 3.40 0067  02.08.2006

@<TRIPOS>MOLECULE
ASD01730093
  19   20    0    0    0
SMALL
NO_CHARGES


@<TRIPOS>ATOM
   1 S1            -0.0226     1.8147     0.0120 S.3     
   2 C2             0.0021    -0.0041     0.0020 C.3     
   3 C3             1.0573    -0.4780     0.9635 C.2     
   4 N4             2.1665     0.1301     1.1716 N.2     
   5 C5             2.5981     1.2819     0.5869 C.ar    
   6 C6             1.7028     2.1869    -0.0025 C.ar    
   7 C7             3.9634     1.5780     0.5696 C.ar    
   8 C8             4.4121     2.7437    -0.0168 C.ar    
   9 C9             3.5199     3.6306    -0.5923 C.ar    
  10 C10            2.1642     3.3524    -0.5861 C.ar    
  11 N11            0.8178    -1.6322     1.6612 N.pl3   
  12 H12           -0.9715    -0.3846     0.3110 H       
  13 H13            0.2348    -0.3610    -1.0012 H       
  14 H14            4.6690     0.8933     1.0165 H       
  15 H15            5.4690     2.9658    -0.0262 H       
  16 H16            3.8818     4.5408    -1.0472 H       
  17 H17            1.4680     4.0442    -1.0368 H       
  18 H18           -0.0119    -2.1166     1.5273 H       
  19 H19            1.4778    -1.9652     2.2892 H       
@<TRIPOS>BOND
   1    1    2 1
   2    1    6 1
   3    2    3 1
   4    2   12 1
   5    2   13 1
   6    3    4 2
   7    3   11 1
   8    4    5 1
   9    5    6 ar
  10    5    7 ar
  11    6   10 ar
  12    7    8 ar
  13    7   14 1
  14    8    9 ar
  15    8   15 1
  16    9   10 ar
  17    9   16 1
  18   10   17 1
  19   11   18 1
  20   11   19 1

#	End of record

