#	Name: ASD01150716
#	Creating user name:	WinNT
#	Creation time:	15. 06. 2019 19:04

#	Modifying user name:	WinNT
#	Modification time:	15. 06. 2019 19:04

#	Program:	/corina/corina34_cracker 3.40 0067  02.08.2006

@<TRIPOS>MOLECULE
ASD01150716
  37   39    0    0    0
SMALL
NO_CHARGES


@<TRIPOS>ATOM
   1 C1            -0.1952     1.2163     0.2146 C.2     
   2 O2             0.5491     1.2752    -0.7454 O.2     
   3 C3             0.1707     0.3898     1.3833 C.ar    
   4 C4             1.3130    -0.4133     1.3444 C.ar    
   5 C5             1.6493    -1.1819     2.4384 C.ar    
   6 C6             0.8571    -1.1589     3.5747 C.ar    
   7 C7            -0.2772    -0.3648     3.6193 C.ar    
   8 C8            -0.6211     0.4127     2.5339 C.ar    
   9 Cl9            1.2873    -2.1295     4.9481 Cl      
  10 C10           -1.4587     1.9739     0.2147 C.ar    
  11 C11           -2.6801     1.3105     0.0112 C.ar    
  12 C12           -3.8657     2.0337     0.0130 C.ar    
  13 C13           -3.8442     3.3986     0.2139 C.ar    
  14 C14           -2.6384     4.0611     0.4155 C.ar    
  15 C15           -1.4496     3.3564     0.4230 C.ar    
  16 O16           -2.6294     5.4066     0.6120 O.3     
  17 C17           -2.2371     6.1994    -0.4195 C.ar    
  18 C18           -2.0998     7.5673    -0.2315 C.ar    
  19 C19           -1.7005     8.3709    -1.2816 C.ar    
  20 C20           -1.4381     7.8134    -2.5195 C.ar    
  21 C21           -1.5741     6.4506    -2.7095 C.ar    
  22 C22           -1.9677     5.6417    -1.6612 C.ar    
  23 N23           -2.7019    -0.0646    -0.1917 N.pl3   
  24 H24            1.9311    -0.4324     0.4590 H       
  25 H25            2.5320    -1.8035     2.4094 H       
  26 H26           -0.8912    -0.3516     4.5077 H       
  27 H27           -1.5031     1.0347     2.5715 H       
  28 H28           -4.8064     1.5268    -0.1435 H       
  29 H29           -4.7694     3.9558     0.2143 H       
  30 H30           -0.5152     3.8731     0.5847 H       
  31 H31           -2.3053     8.0034     0.7350 H       
  32 H32           -1.5934     9.4357    -1.1359 H       
  33 H33           -1.1267     8.4435    -3.3394 H       
  34 H34           -1.3689     6.0176    -3.6774 H       
  35 H35           -2.0699     4.5767    -1.8090 H       
  36 H36           -1.8695    -0.5570    -0.2673 H       
  37 H37           -3.5494    -0.5317    -0.2578 H       
@<TRIPOS>BOND
   1    1    2 2
   2    1    3 1
   3    1   10 1
   4    3    4 ar
   5    3    8 ar
   6    4    5 ar
   7    4   24 1
   8    5    6 ar
   9    5   25 1
  10    6    7 ar
  11    6    9 1
  12    7    8 ar
  13    7   26 1
  14    8   27 1
  15   10   11 ar
  16   10   15 ar
  17   11   12 ar
  18   11   23 1
  19   12   13 ar
  20   12   28 1
  21   13   14 ar
  22   13   29 1
  23   14   15 ar
  24   14   16 1
  25   15   30 1
  26   16   17 1
  27   17   18 ar
  28   17   22 ar
  29   18   19 ar
  30   18   31 1
  31   19   20 ar
  32   19   32 1
  33   20   21 ar
  34   20   33 1
  35   21   22 ar
  36   21   34 1
  37   22   35 1
  38   23   36 1
  39   23   37 1

#	End of record

