#	Name: ASD01140517
#	Creating user name:	WinNT
#	Creation time:	15. 06. 2019 19:01

#	Modifying user name:	WinNT
#	Modification time:	15. 06. 2019 19:01

#	Program:	/corina/corina34_cracker 3.40 0067  02.08.2006

@<TRIPOS>MOLECULE
ASD01140517
  47   49    0    0    0
SMALL
NO_CHARGES


@<TRIPOS>ATOM
   1 C1             0.0585     2.2612     0.0112 C.ar    
   2 C2            -0.1560     0.8996    -0.1053 C.ar    
   3 C3             0.9320     0.0345    -0.1792 C.ar    
   4 C4             2.2171     0.5441    -0.1378 C.ar    
   5 C5             2.4275     1.9111    -0.0233 C.ar    
   6 C6             1.3496     2.7670     0.0542 C.ar    
   7 C7             1.5313     4.2571     0.1915 C.3     
   8 C8             3.8465     2.4160     0.0060 C.3     
   9 N9             3.8949     3.7822     0.5360 N.3     
  10 C10            2.9574     4.6471    -0.1978 C.3     
  11 C11            5.2607     4.3202     0.4808 C.3     
  12 C12            4.6902     1.4996     0.8945 C.3     
  13 C13            4.1304     1.5020     2.2936 C.ar    
  14 C14            4.4818     2.5072     3.1754 C.ar    
  15 C15            3.2621     0.5023     2.6907 C.ar    
  16 C16            2.7464     0.5031     3.9768 C.ar    
  17 C17            3.1046     1.5116     4.8662 C.ar    
  18 C18            3.9713     2.5136     4.4601 C.ar    
  19 O19           -1.4236     0.4086    -0.1470 O.3     
  20 O20            0.7322    -1.3060    -0.2912 O.3     
  21 O21            1.8917    -0.4794     4.3690 O.3     
  22 O22            2.6008     1.5169     6.1294 O.3     
  23 C23           -2.4896     1.3568    -0.0655 C.3     
  24 C24            3.0123     2.5829     6.9875 C.3     
  25 H25           -0.7840     2.9348     0.0645 H       
  26 H26            3.0622    -0.1260    -0.1944 H       
  27 H27            0.8249     4.7695    -0.4616 H       
  28 H28            1.3451     4.5507     1.2246 H       
  29 H29            4.2521     2.4081    -1.0057 H       
  30 H30            3.0949     4.5093    -1.2703 H       
  31 H31            3.1371     5.6892     0.0664 H       
  32 H32            5.6391     4.2471    -0.5387 H       
  33 H33            5.2525     5.3651     0.7912 H       
  34 H34            5.9040     3.7478     1.1491 H       
  35 H35            4.6674     0.4854     0.4957 H       
  36 H36            5.7190     1.8593     0.9142 H       
  37 H37            5.1570     3.2889     2.8600 H       
  38 H38            2.9854    -0.2791     1.9984 H       
  39 H39            4.2480     3.2995     5.1472 H       
  40 H40            0.6732    -1.6200    -1.2039 H       
  41 H41            2.3292    -1.2495     4.7571 H       
  42 H42           -2.4181     1.9039     0.8746 H       
  43 H43           -2.4187     2.0557    -0.8989 H       
  44 H44           -3.4450     0.8341    -0.1099 H       
  45 H45            4.0958     2.5576     7.1044 H       
  46 H46            2.7163     3.5364     6.5501 H       
  47 H47            2.5389     2.4678     7.9625 H       
@<TRIPOS>BOND
   1    1    2 ar
   2    1    6 ar
   3    1   25 1
   4    2    3 ar
   5    2   19 1
   6    3    4 ar
   7    3   20 1
   8    4    5 ar
   9    4   26 1
  10    5    6 ar
  11    5    8 1
  12    6    7 1
  13    7   10 1
  14    7   27 1
  15    7   28 1
  16    8    9 1
  17    8   12 1
  18    8   29 1
  19    9   10 1
  20    9   11 1
  21   10   30 1
  22   10   31 1
  23   11   32 1
  24   11   33 1
  25   11   34 1
  26   12   13 1
  27   12   35 1
  28   12   36 1
  29   13   15 ar
  30   13   14 ar
  31   14   18 ar
  32   14   37 1
  33   15   16 ar
  34   15   38 1
  35   16   17 ar
  36   16   21 1
  37   17   18 ar
  38   17   22 1
  39   18   39 1
  40   19   23 1
  41   20   40 1
  42   21   41 1
  43   22   24 1
  44   23   42 1
  45   23   43 1
  46   23   44 1
  47   24   45 1
  48   24   46 1
  49   24   47 1

#	End of record

