#	Name: ASD03091148
#	Creating user name:	WinNT
#	Creation time:	15. 06. 2019 20:30

#	Modifying user name:	WinNT
#	Modification time:	15. 06. 2019 20:30

#	Program:	/corina/corina34_cracker 3.40 0067  02.08.2006

@<TRIPOS>MOLECULE
ASD03091148
  36   38    0    0    0
SMALL
NO_CHARGES


@<TRIPOS>ATOM
   1 C1            -0.0207     1.4751    -0.0172 C.2     
   2 C2             0.0008    -0.0041    -0.0112 C.ar    
   3 C3            -1.1844    -0.7401     0.1142 C.ar    
   4 C4            -1.1228    -2.1187     0.1156 C.ar    
   5 N5             0.0307    -2.7475     0.0011 N.ar    
   6 C6             1.1755    -2.0949    -0.1196 C.ar    
   7 C7             1.2025    -0.7042    -0.1361 C.ar    
   8 O8            -0.0643     2.0814    -1.0778 O.co2   
   9 O9             0.0000     2.0910     1.0385 O.co2   
  10 N10           -2.4863    -0.0479     0.2439 N.pl3   
  11 O11           -3.5204    -0.6915     0.2493 O.2     
  12 O12           -2.5236     1.1653     0.3453 O.2     
  13 N13            4.6281    -4.4915     0.6604 N.3     
  14 C14            4.6948    -3.0238     0.5919 C.3     
  15 C15            3.3186    -2.4129     0.8056 C.3     
  16 N16            2.3638    -2.8071    -0.2372 N.3     
  17 C17            2.1166    -4.2551    -0.1925 C.3     
  18 C18            3.0365    -4.9808    -1.1629 C.3     
  19 C19            4.4745    -5.0512    -0.6901 C.3     
  20 C20            3.6878    -5.0462     1.6104 C.3     
  21 C21            2.2461    -4.7382     1.2405 C.3     
  22 H22           -2.0332    -2.6916     0.2123 H       
  23 H23            2.1381    -0.1746    -0.2394 H       
  24 H24            5.3733    -2.6588     1.3629 H       
  25 H25            5.0715    -2.7267    -0.3869 H       
  26 H26            2.9362    -2.7344     1.7743 H       
  27 H27            3.4109    -1.3268     0.8074 H       
  28 H28            1.0875    -4.4312    -0.5057 H       
  29 H29            2.6650    -5.9957    -1.3040 H       
  30 H30            3.0091    -4.4649    -2.1227 H       
  31 H31            5.1042    -4.4909    -1.3812 H       
  32 H32            4.7960    -6.0927    -0.6824 H       
  33 H33            3.8197    -6.1275     1.6482 H       
  34 H34            3.8958    -4.6317     2.5969 H       
  35 H35            1.8655    -3.9670     1.9101 H       
  36 H36            1.6477    -5.6406     1.3655 H       
@<TRIPOS>BOND
   1    1    2 1
   2    1    8 ar
   3    1    9 ar
   4    2    3 ar
   5    2    7 ar
   6    3    4 ar
   7    3   10 1
   8    4    5 ar
   9    4   22 1
  10    5    6 ar
  11    6    7 ar
  12    6   16 1
  13    7   23 1
  14   10   11 2
  15   10   12 2
  16   13   14 1
  17   13   19 1
  18   13   20 1
  19   14   15 1
  20   14   24 1
  21   14   25 1
  22   15   16 1
  23   15   26 1
  24   15   27 1
  25   16   17 1
  26   17   18 1
  27   17   21 1
  28   17   28 1
  29   18   19 1
  30   18   29 1
  31   18   30 1
  32   19   31 1
  33   19   32 1
  34   20   21 1
  35   20   33 1
  36   20   34 1
  37   21   35 1
  38   21   36 1

#	End of record

