#	Name: ASD01900799
#	Creating user name:	WinNT
#	Creation time:	15. 06. 2019 19:52

#	Modifying user name:	WinNT
#	Modification time:	15. 06. 2019 19:52

#	Program:	/corina/corina34_cracker 3.40 0067  02.08.2006

@<TRIPOS>MOLECULE
ASD01900799
  28   30    0    0    0
SMALL
NO_CHARGES


@<TRIPOS>ATOM
   1 C1             1.3065    -0.7464    -0.1572 C.ar    
   2 N2             0.1103    -0.0585    -0.0445 N.pl3   
   3 C3            -1.1074    -0.7570    -0.0803 C.2     
   4 N4             2.4410    -0.0647    -0.2234 N.ar    
   5 N5             1.2903    -2.0710    -0.1909 N.ar    
   6 C6             2.4152    -2.7585    -0.2975 C.ar    
   7 C7             3.6196    -2.0766    -0.3743 C.ar    
   8 C8             3.6009    -0.6913    -0.3311 C.ar    
   9 N9            -1.1667    -2.0509    -0.3207 N.2     
  10 C10           -2.3498    -2.5966    -0.3299 C.2     
  11 S11           -3.5597    -1.3598     0.0008 S.3     
  12 C12           -2.2841    -0.1510     0.1335 C.2     
  13 C13           -2.6321    -4.0270    -0.5791 C.2     
  14 C14           -3.4668    -4.8257     0.1517 C.2     
  15 C15           -2.0941    -4.8149    -1.6179 C.2     
  16 N16           -2.5816    -6.0214    -1.5054 N.2     
  17 N17           -3.4446    -6.0533    -0.4035 N.pl3   
  18 C18           -1.1265    -4.3462    -2.6739 C.3     
  19 F19            0.1828    -4.6054    -2.2546 F       
  20 F20           -1.3763    -5.0267    -3.8704 F       
  21 F21           -1.2875    -2.9714    -2.8769 F       
  22 H22            0.1134     0.9060     0.0592 H       
  23 H23            2.3956    -3.8380    -0.3241 H       
  24 H24            4.5528    -2.6133    -0.4619 H       
  25 H25            4.5218    -0.1301    -0.3890 H       
  26 H26           -2.4263     0.8984     0.3456 H       
  27 H27           -4.0400    -4.5270     1.0169 H       
  28 H28           -3.9415    -6.8264    -0.0932 H       
@<TRIPOS>BOND
   1    1    2 1
   2    1    4 ar
   3    1    5 ar
   4    2    3 1
   5    2   22 1
   6    3    9 1
   7    3   12 2
   8    4    8 ar
   9    5    6 ar
  10    6    7 ar
  11    6   23 1
  12    7    8 ar
  13    7   24 1
  14    8   25 1
  15    9   10 2
  16   10   11 1
  17   10   13 1
  18   11   12 1
  19   12   26 1
  20   13   14 2
  21   13   15 1
  22   14   17 1
  23   14   27 1
  24   15   16 2
  25   15   18 1
  26   16   17 1
  27   17   28 1
  28   18   19 1
  29   18   20 1
  30   18   21 1

#	End of record

