#	Name: ASD01940232
#	Creating user name:	WinNT
#	Creation time:	15. 06. 2019 20:12

#	Modifying user name:	WinNT
#	Modification time:	15. 06. 2019 20:12

#	Program:	/corina/corina34_cracker 3.40 0067  02.08.2006

@<TRIPOS>MOLECULE
ASD01940232
  37   38    0    0    0
SMALL
NO_CHARGES


@<TRIPOS>ATOM
   1 F1             1.8794     1.5475     2.2253 F       
   2 C2             1.0424     2.1417     1.3470 C.ar    
   3 C3             1.3677     2.1853    -0.0023 C.ar    
   4 C4             0.5009     2.7995    -0.9048 C.ar    
   5 C5            -0.6819     3.3640    -0.4514 C.ar    
   6 C6            -1.0007     3.3176     0.8933 C.ar    
   7 C7            -0.1442     2.7031     1.7908 C.ar    
   8 N8             2.5646     1.6137    -0.4554 N.pl3   
   9 N9             0.8243     2.8469    -2.2673 N.am    
  10 C10            2.6052     0.2630    -0.8019 C.ar    
  11 C11            1.4433    -0.4999    -0.7582 C.ar    
  12 C12            1.4804    -1.8343    -1.1000 C.ar    
  13 C13            2.6857    -2.4201    -1.4908 C.ar    
  14 C14            3.8508    -1.6515    -1.5342 C.ar    
  15 C15            3.8067    -0.3167    -1.1961 C.ar    
  16 C16            5.0634     0.5136    -1.2431 C.3     
  17 F17           -0.4632     2.6557     3.1028 F       
  18 S18            0.4119     4.1721    -3.1706 S.o2    
  19 C19            1.2655     5.5539    -2.3629 C.3     
  20 O20            0.9776     3.9150    -4.4486 O.2     
  21 O21           -0.9943     4.2875    -3.0017 O.2     
  22 C22            2.7275    -3.8068    -1.8461 C.1     
  23 C23            2.7617    -4.9435    -2.1373 C.1     
  24 H24           -1.3545     3.8406    -1.1491 H       
  25 H25           -1.9224     3.7580     1.2438 H       
  26 H26            3.3647     2.1573    -0.5281 H       
  27 H27            1.2897     2.1034    -2.6815 H       
  28 H28            0.5111    -0.0461    -0.4558 H       
  29 H29            0.5778    -2.4265    -1.0652 H       
  30 H30            4.7847    -2.1021    -1.8361 H       
  31 H31            5.1701     0.9554    -2.2338 H       
  32 H32            5.0038     1.3056    -0.4966 H       
  33 H33            5.9254    -0.1196    -1.0329 H       
  34 H34            2.3403     5.3729    -2.3732 H       
  35 H35            1.0476     6.4783    -2.8979 H       
  36 H36            0.9216     5.6409    -1.3322 H       
  37 H37            2.7924    -5.9603    -2.3978 H       
@<TRIPOS>BOND
   1    1    2 1
   2    2    3 ar
   3    2    7 ar
   4    3    4 ar
   5    3    8 1
   6    4    5 ar
   7    4    9 1
   8    5    6 ar
   9    5   24 1
  10    6    7 ar
  11    6   25 1
  12    7   17 1
  13    8   10 1
  14    8   26 1
  15    9   18 am
  16    9   27 1
  17   10   11 ar
  18   10   15 ar
  19   11   12 ar
  20   11   28 1
  21   12   13 ar
  22   12   29 1
  23   13   14 ar
  24   13   22 1
  25   14   15 ar
  26   14   30 1
  27   15   16 1
  28   16   31 1
  29   16   32 1
  30   16   33 1
  31   18   19 1
  32   18   20 2
  33   18   21 2
  34   19   34 1
  35   19   35 1
  36   19   36 1
  37   22   23 3
  38   23   37 1

#	End of record

