#	Name: ASD05730158
#	Creating user name:	WinNT
#	Creation time:	15. 06. 2019 21:02

#	Modifying user name:	WinNT
#	Modification time:	15. 06. 2019 21:02

#	Program:	/corina/corina34_cracker 3.40 0067  02.08.2006

@<TRIPOS>MOLECULE
ASD05730158
  20   21    0    0    0
SMALL
NO_CHARGES


@<TRIPOS>ATOM
   1 C1            -0.0170     1.4004     0.0097 C.ar    
   2 C2             0.0021    -0.0041     0.0020 C.ar    
   3 C3             1.1939    -0.6616    -0.0129 C.ar    
   4 C4             2.3989     0.0386    -0.0205 C.ar    
   5 C5             2.4183     1.3997    -0.0134 C.ar    
   6 C6             1.2079     2.1124     0.0019 C.ar    
   7 C7             1.1907     3.5215     0.0090 C.ar    
   8 C8            -0.0022     4.1858     0.0235 C.ar    
   9 C9            -1.2099     3.4910     0.0314 C.ar    
  10 C10           -1.2317     2.1147     0.0193 C.ar    
  11 O11           -2.4171     1.4489     0.0213 O.3     
  12 O12            2.3582     4.2174     0.0020 O.3     
  13 Cl13          -2.7056     4.3720     0.0498 Cl      
  14 H14           -0.9241    -0.5595     0.0082 H       
  15 H15            1.2059    -1.7415    -0.0184 H       
  16 H16            3.3310    -0.5067    -0.0320 H       
  17 H17            3.3597     1.9290    -0.0192 H       
  18 H18           -0.0096     5.2658     0.0293 H       
  19 H19           -2.7559     1.2515     0.9053 H       
  20 H20            2.6882     4.4231    -0.8834 H       
@<TRIPOS>BOND
   1    1    2 ar
   2    1    6 ar
   3    1   10 ar
   4    2    3 ar
   5    2   14 1
   6    3    4 ar
   7    3   15 1
   8    4    5 ar
   9    4   16 1
  10    5    6 ar
  11    5   17 1
  12    6    7 ar
  13    7    8 ar
  14    7   12 1
  15    8    9 ar
  16    8   18 1
  17    9   10 ar
  18    9   13 1
  19   10   11 1
  20   11   19 1
  21   12   20 1

#	End of record

