#	Name: ASD09116111
#	Creating user name:	WinNT
#	Creation time:	15. 06. 2019 21:20

#	Modifying user name:	WinNT
#	Modification time:	15. 06. 2019 21:20

#	Program:	/corina/corina34_cracker 3.40 0067  02.08.2006

@<TRIPOS>MOLECULE
ASD09116111
  39   41    0    0    0
SMALL
NO_CHARGES


@<TRIPOS>ATOM
   1 N1            -0.0179     1.4702     0.0101 N.3     
   2 C2             0.0021    -0.0041     0.0020 C.3     
   3 C3             1.4820    -0.4413     0.0110 C.3     
   4 C4             2.2089     0.7978     0.5967 C.3     
   5 C5             1.3770     1.9600    -0.0006 C.3     
   6 C6            -0.6504     3.2392    -4.0893 C.ar    
   7 C7            -1.0606     4.3083    -3.3356 C.ar    
   8 C8            -1.8228     4.0822    -2.0464 C.3     
   9 C9            -0.8591     3.5004    -1.0093 C.3     
  10 C10           -0.7682     1.9929    -1.1396 C.3     
  11 C11           -0.0962     1.5127    -2.4107 C.3     
  12 C12           -0.9576     1.8267    -3.6371 C.3     
  13 C13           -0.7834     5.5999    -3.7463 C.ar    
  14 C14           -0.0884     5.8085    -4.9241 C.ar    
  15 C15            0.3259     4.7307    -5.6836 C.ar    
  16 C16            0.0415     3.4415    -5.2701 C.ar    
  17 N17            0.2115     7.1872    -5.3715 N.pl3   
  18 O18           -0.1536     8.1375    -4.7028 O.2     
  19 O19            0.8235     7.3715    -6.4084 O.2     
  20 H20           -0.5030    -0.3866     0.8889 H       
  21 H21           -0.4892    -0.3766    -0.8968 H       
  22 H22            1.6232    -1.3104     0.6535 H       
  23 H23            1.8287    -0.6487    -1.0014 H       
  24 H24            2.1590     0.8012     1.6856 H       
  25 H25            3.2429     0.8417     0.2547 H       
  26 H26            1.6974     2.1707    -1.0209 H       
  27 H27            1.4709     2.8516     0.6194 H       
  28 H28           -2.2209     5.0304    -1.6851 H       
  29 H29           -2.6392     3.3815    -2.2215 H       
  30 H30            0.1304     3.9329    -1.1574 H       
  31 H31           -1.2134     3.7528    -0.0098 H       
  32 H32           -1.7772     1.5817    -1.1082 H       
  33 H33            0.8693     2.0079    -2.5146 H       
  34 H34            0.0595     0.4356    -2.3487 H       
  35 H35           -2.0124     1.7476    -3.3739 H       
  36 H36           -0.7233     1.1263    -4.4387 H       
  37 H37           -1.1081     6.4406    -3.1511 H       
  38 H38            0.8686     4.8951    -6.6027 H       
  39 H39            0.3642     2.5977    -5.8619 H       
@<TRIPOS>BOND
   1    1    2 1
   2    1    5 1
   3    1   10 1
   4    2    3 1
   5    2   20 1
   6    2   21 1
   7    3    4 1
   8    3   22 1
   9    3   23 1
  10    4    5 1
  11    4   24 1
  12    4   25 1
  13    5   26 1
  14    5   27 1
  15    6    7 ar
  16    6   12 1
  17    6   16 ar
  18    7    8 1
  19    7   13 ar
  20    8    9 1
  21    8   28 1
  22    8   29 1
  23    9   10 1
  24    9   30 1
  25    9   31 1
  26   10   11 1
  27   10   32 1
  28   11   12 1
  29   11   33 1
  30   11   34 1
  31   12   35 1
  32   12   36 1
  33   13   14 ar
  34   13   37 1
  35   14   15 ar
  36   14   17 1
  37   15   16 ar
  38   15   38 1
  39   16   39 1
  40   17   18 2
  41   17   19 2

#	End of record

