#	Name: ASD01920053
#	Creating user name:	WinNT
#	Creation time:	15. 06. 2019 20:11

#	Modifying user name:	WinNT
#	Modification time:	15. 06. 2019 20:11

#	Program:	/corina/corina34_cracker 3.40 0067  02.08.2006

@<TRIPOS>MOLECULE
ASD01920053
  38   40    0    0    0
SMALL
NO_CHARGES


@<TRIPOS>ATOM
   1 C1            -0.0053     1.3642     0.0475 C.ar    
   2 C2            -0.0755     0.1077    -0.5322 C.ar    
   3 C3             1.0456    -0.4159    -1.1574 C.ar    
   4 C4             2.2050     0.3429    -1.1798 C.ar    
   5 C5             2.2035     1.5989    -0.5765 C.ar    
   6 N6             1.1081     2.0634     0.0117 N.ar    
   7 C7             3.4348     2.4223    -0.5914 C.2     
   8 O8             4.4407     2.0016    -1.1283 O.2     
   9 N9             3.4395     3.6379    -0.0095 N.am    
  10 C10            4.6307     4.3684     0.0759 C.ar    
  11 C11            4.6056     5.7531    -0.0299 C.ar    
  12 C12            5.8370     3.7092     0.2720 C.ar    
  13 C13            7.0123     4.4310     0.3562 C.ar    
  14 C14            6.9866     5.8147     0.2446 C.ar    
  15 C15            5.7806     6.4733     0.0539 C.ar    
  16 O16            8.1431     6.5249     0.3279 O.3     
  17 Cl17           8.5208     3.6079     0.6020 Cl      
  18 C18            8.9272     6.5970    -0.7769 C.ar    
  19 C19           10.1648     7.2232    -0.7024 C.ar    
  20 C20           10.9553     7.2896    -1.8367 C.ar    
  21 C21           10.4771     6.7246    -3.0108 C.ar    
  22 C22            9.2366     6.1177    -3.0122 C.ar    
  23 N23            8.5080     6.0656    -1.9136 N.ar    
  24 C24           12.3041     7.9606    -1.7979 C.3     
  25 F25           13.2834     7.0199    -1.4615 F       
  26 F26           12.5912     8.5036    -3.0549 F       
  27 F27           12.2898     8.9813    -0.8412 F       
  28 H28           -0.8781     1.7770     0.5314 H       
  29 H29           -0.9945    -0.4584    -0.4970 H       
  30 H30            1.0162    -1.3931    -1.6162 H       
  31 H31            3.0971    -0.0340    -1.6578 H       
  32 H32            2.6176     4.0067     0.3501 H       
  33 H33            3.6670     6.2664    -0.1780 H       
  34 H34            5.8566     2.6329     0.3592 H       
  35 H35            5.7613     7.5497    -0.0331 H       
  36 H36           10.5056     7.6527     0.2280 H       
  37 H37           11.0687     6.7595    -3.9137 H       
  38 H38            8.8600     5.6765    -3.9232 H       
@<TRIPOS>BOND
   1    1    2 ar
   2    1    6 ar
   3    1   28 1
   4    2    3 ar
   5    2   29 1
   6    3    4 ar
   7    3   30 1
   8    4    5 ar
   9    4   31 1
  10    5    6 ar
  11    5    7 1
  12    7    8 2
  13    7    9 am
  14    9   10 1
  15    9   32 1
  16   10   11 ar
  17   10   12 ar
  18   11   15 ar
  19   11   33 1
  20   12   13 ar
  21   12   34 1
  22   13   14 ar
  23   13   17 1
  24   14   15 ar
  25   14   16 1
  26   15   35 1
  27   16   18 1
  28   18   19 ar
  29   18   23 ar
  30   19   20 ar
  31   19   36 1
  32   20   24 1
  33   20   21 ar
  34   21   22 ar
  35   21   37 1
  36   22   23 ar
  37   22   38 1
  38   24   25 1
  39   24   26 1
  40   24   27 1

#	End of record

