#	Name: ASD03330660
#	Creating user name:	WinNT
#	Creation time:	15. 06. 2019 20:37

#	Modifying user name:	WinNT
#	Modification time:	15. 06. 2019 20:37

#	Program:	/corina/corina34_cracker 3.40 0067  02.08.2006

@<TRIPOS>MOLECULE
ASD03330660
  67   69    0    0    0
SMALL
NO_CHARGES


@<TRIPOS>ATOM
   1 C1             0.3428     1.7211     1.5240 C.2     
   2 N2             0.3697     0.4244     1.9307 N.pl3   
   3 C3             1.5609     1.9957     0.9789 C.2     
   4 N4             2.3048     0.8707     1.0420 N.2     
   5 C5             1.5964    -0.0810     1.6070 C.2     
   6 C6             2.0491    -1.4613     1.8498 C.2     
   7 C7             1.9898     3.2899     0.4193 C.2     
   8 O8             1.2249     4.2354     0.4183 O.2     
   9 C9             3.6560     4.7120    -0.6477 C.3     
  10 N10            3.2297     3.4255    -0.0915 N.am    
  11 C11            3.2033     4.8123    -2.1058 C.3     
  12 C12            1.6822     4.6644    -2.1788 C.3     
  13 C13            3.6112     6.1731    -2.6740 C.3     
  14 C14            3.8637     3.6999    -2.9226 C.3     
  15 C15            5.1579     4.8156    -0.5798 C.2     
  16 N16            5.7605     6.0060    -0.7703 N.am    
  17 O17            5.8243     3.8279    -0.3538 O.2     
  18 C18            7.2229     6.0937    -0.7790 C.3     
  19 C19           -0.7255    -0.2777     2.6053 C.3     
  20 C20           -2.0339    -0.0042     1.8569 C.3     
  21 C21           -2.6756     1.2727     2.3901 C.3     
  22 N22           -1.6579     2.2464     2.7902 N.3     
  23 C23           -0.8317     2.6571     1.6453 C.3     
  24 C24           -2.2713     3.4115     3.4416 C.3     
  25 C25            2.0092    -1.9180     3.0812 C.2     
  26 C26            2.4472    -3.2987     3.4746 C.3     
  27 C27            2.5260    -4.1982     2.2393 C.3     
  28 C28            3.3363    -3.4715     1.1589 C.3     
  29 C29            2.5237    -2.2664     0.6753 C.3     
  30 C30            3.2185    -5.5128     2.6041 C.3     
  31 H31            3.2095     5.5227    -0.0720 H       
  32 H32            3.8397     2.6714    -0.0907 H       
  33 H33            1.2117     5.4570    -1.5969 H       
  34 H34            1.3597     4.7359    -3.2175 H       
  35 H35            1.3916     3.6950    -1.7740 H       
  36 H36            4.6792     6.3262    -2.5189 H       
  37 H37            3.3913     6.2019    -3.7411 H       
  38 H38            3.0538     6.9605    -2.1667 H       
  39 H39            3.5730     2.7304    -2.5178 H       
  40 H40            3.5411     3.7713    -3.9613 H       
  41 H41            4.9473     3.8052    -2.8705 H       
  42 H42            5.2260     6.8048    -0.9015 H       
  43 H43            7.6197     5.4669    -1.5776 H       
  44 H44            7.5239     7.1280    -0.9453 H       
  45 H45            7.6131     5.7513     0.1795 H       
  46 H46           -0.5245    -1.3490     2.6081 H       
  47 H47           -0.8108     0.0807     3.6312 H       
  48 H48           -1.8257     0.1115     0.7933 H       
  49 H49           -2.7167    -0.8412     2.0028 H       
  50 H50           -3.3024     1.7095     1.6126 H       
  51 H51           -3.2955     1.0283     3.2527 H       
  52 H52           -0.4724     3.6743     1.8013 H       
  53 H53           -1.4266     2.6154     0.7329 H       
  54 H54           -2.8135     3.0875     4.3299 H       
  55 H55           -1.4932     4.1188     3.7286 H       
  56 H56           -2.9624     3.8927     2.7495 H       
  57 H57            1.6400    -1.2617     3.8554 H       
  58 H58            3.4284    -3.2458     3.9463 H       
  59 H59            1.7308    -3.7174     4.1814 H       
  60 H60            1.5210    -4.4008     1.8692 H       
  61 H61            4.2848    -3.1344     1.5772 H       
  62 H62            3.5207    -4.1466     0.3232 H       
  63 H63            1.6670    -2.6160     0.0992 H       
  64 H64            3.1505    -1.6385     0.0421 H       
  65 H65            2.6499    -6.0186     3.3845 H       
  66 H66            3.2732    -6.1515     1.7225 H       
  67 H67            4.2257    -5.3049     2.9653 H       
@<TRIPOS>BOND
   1    1    2 1
   2    1    3 2
   3    1   23 1
   4    2   19 1
   5    2    5 1
   6    3    4 1
   7    3    7 1
   8    4    5 2
   9    5    6 1
  10    6   25 2
  11    6   29 1
  12    7    8 2
  13    7   10 am
  14    9   10 1
  15    9   11 1
  16    9   15 1
  17    9   31 1
  18   10   32 1
  19   11   12 1
  20   11   13 1
  21   11   14 1
  22   12   33 1
  23   12   34 1
  24   12   35 1
  25   13   36 1
  26   13   37 1
  27   13   38 1
  28   14   39 1
  29   14   40 1
  30   14   41 1
  31   15   16 am
  32   15   17 2
  33   16   18 1
  34   16   42 1
  35   18   43 1
  36   18   44 1
  37   18   45 1
  38   19   20 1
  39   19   46 1
  40   19   47 1
  41   20   21 1
  42   20   48 1
  43   20   49 1
  44   21   22 1
  45   21   50 1
  46   21   51 1
  47   22   23 1
  48   22   24 1
  49   23   52 1
  50   23   53 1
  51   24   54 1
  52   24   55 1
  53   24   56 1
  54   25   26 1
  55   25   57 1
  56   26   27 1
  57   26   58 1
  58   26   59 1
  59   27   28 1
  60   27   30 1
  61   27   60 1
  62   28   29 1
  63   28   61 1
  64   28   62 1
  65   29   63 1
  66   29   64 1
  67   30   65 1
  68   30   66 1
  69   30   67 1

#	End of record

