#	Name: ASD01820022
#	Creating user name:	WinNT
#	Creation time:	15. 06. 2019 19:36

#	Modifying user name:	WinNT
#	Modification time:	15. 06. 2019 19:36

#	Program:	/corina/corina34_cracker 3.40 0067  02.08.2006

@<TRIPOS>MOLECULE
ASD01820022
  87   92    0    0    0
SMALL
NO_CHARGES


@<TRIPOS>ATOM
   1 C1            -0.8124     3.3854    -1.6595 C.ar    
   2 C2            -0.8532     2.0814    -1.2092 C.ar    
   3 N3             0.2501     1.4584    -0.8411 N.ar    
   4 C4             1.4347     2.0485    -0.8835 C.ar    
   5 C5             1.5589     3.3536    -1.3573 C.ar    
   6 C6             0.4086     4.0387    -1.7389 C.ar    
   7 N7             2.5551     1.3633    -0.4022 N.am    
   8 C8             3.2580     1.8887     0.6800 C.ar    
   9 C9             3.8565     3.1502     0.5929 C.ar    
  10 C10            3.8222     3.9095    -0.6641 C.2     
  11 N11            2.7956     3.9730    -1.4977 N.am    
  12 C12            3.3590     1.1574     1.8564 C.ar    
  13 C13            4.0239     1.6860     2.9449 C.ar    
  14 C14            4.5912     2.9477     2.8729 C.ar    
  15 C15            4.5115     3.6807     1.7086 C.ar    
  16 C16            2.9493     0.2100    -0.9774 C.2     
  17 N17            2.2626    -0.2905    -2.0236 N.am    
  18 C18            2.7491    -1.4875    -2.7140 C.3     
  19 C19            1.7329    -1.9122    -3.7759 C.3     
  20 N20            2.2413    -3.0858    -4.4986 N.3     
  21 O21            4.8218     4.5328    -0.9646 O.2     
  22 O22            3.9244    -0.3790    -0.5525 O.2     
  23 C23            2.2879    -4.2636    -3.6229 C.3     
  24 C24            2.6817    -5.4948    -4.4422 C.3     
  25 C25            4.0517    -5.2580    -5.0837 C.3     
  26 C26            3.9891    -3.9985    -5.9521 C.3     
  27 C27            3.5574    -2.8107    -5.0891 C.3     
  28 C28            3.4740    -1.5535    -5.9570 C.3     
  29 N29            4.8148    -1.2070    -6.4471 N.3     
  30 C30            5.0508    -1.7749    -7.7812 C.3     
  31 C31            4.0960    -1.1285    -8.7868 C.3     
  32 C32            4.3490    -1.7123   -10.1782 C.3     
  33 C33            5.0138     0.2485    -6.4518 C.3     
  34 C34            6.4947     0.5601    -6.6771 C.3     
  35 C35            6.6964     2.0762    -6.7176 C.3     
  36 N36            8.1144     2.3746    -6.9333 N.am    
  37 C37            8.6858     2.5223    -8.1422 C.2     
  38 C38           10.1221     2.8145    -7.9517 C.ar    
  39 C39           10.3322     2.8238    -6.5577 C.ar    
  40 C40            9.0152     2.5426    -5.9484 C.2     
  41 O41            8.7862     2.4678    -4.7581 O.2     
  42 O42            8.1167     2.4304    -9.2112 O.2     
  43 C43           11.1827     3.0551    -8.8098 C.ar    
  44 C44           12.4442     3.3035    -8.2908 C.ar    
  45 C45           12.6501     3.3126    -6.9244 C.ar    
  46 C46           11.5982     3.0731    -6.0534 C.ar    
  47 H47           -1.7213     3.8904    -1.9513 H       
  48 H48           -1.8000     1.5646    -1.1572 H       
  49 H49            0.4659     5.0584    -2.0900 H       
  50 H50            2.9202     4.5111    -2.2950 H       
  51 H51            2.9172     0.1739     1.9198 H       
  52 H52            4.1018     1.1131     3.8571 H       
  53 H53            5.0981     3.3589     3.7333 H       
  54 H54            4.9551     4.6641     1.6579 H       
  55 H55            1.4463     0.1419    -2.3194 H       
  56 H56            3.7040    -1.2685    -3.1919 H       
  57 H57            2.8802    -2.2946    -1.9932 H       
  58 H58            0.7878    -2.1634    -3.2945 H       
  59 H59            1.5767    -1.0929    -4.4776 H       
  60 H60            3.0232    -4.1014    -2.8348 H       
  61 H61            1.3065    -4.4233    -3.1764 H       
  62 H62            2.7314    -6.3659    -3.7890 H       
  63 H63            1.9394    -5.6657    -5.2219 H       
  64 H64            4.8013    -5.1257    -4.3035 H       
  65 H65            4.3168    -6.1148    -5.7033 H       
  66 H66            4.9729    -3.8006    -6.3777 H       
  67 H67            3.2674    -4.1459    -6.7555 H       
  68 H68            4.2868    -2.6553    -4.2941 H       
  69 H69            2.8145    -1.7401    -6.8045 H       
  70 H70            3.0794    -0.7283    -5.3643 H       
  71 H71            6.0805    -1.5813    -8.0816 H       
  72 H72            4.8763    -2.8505    -7.7542 H       
  73 H73            3.0663    -1.3286    -8.4906 H       
  74 H74            4.2652    -0.0519    -8.8082 H       
  75 H75            4.0967    -2.7727   -10.1787 H       
  76 H76            3.7303    -1.1912   -10.9089 H       
  77 H77            5.4003    -1.5888   -10.4384 H       
  78 H78            4.4230     0.6933    -7.2526 H       
  79 H79            4.6971     0.6616    -5.4942 H       
  80 H80            7.0829     0.1369    -5.8629 H       
  81 H81            6.8177     0.1252    -7.6229 H       
  82 H82            6.1081     2.4994    -7.5318 H       
  83 H83            6.3734     2.5111    -5.7718 H       
  84 H84           11.0276     3.0488    -9.8786 H       
  85 H85           13.2716     3.4909    -8.9590 H       
  86 H86           13.6373     3.5074    -6.5321 H       
  87 H87           11.7648     3.0818    -4.9864 H       
@<TRIPOS>BOND
   1    1    2 ar
   2    1    6 ar
   3    1   47 1
   4    2    3 ar
   5    2   48 1
   6    3    4 ar
   7    4    5 ar
   8    4    7 1
   9    5    6 ar
  10    5   11 1
  11    6   49 1
  12    7    8 1
  13    7   16 am
  14    8    9 ar
  15    8   12 ar
  16    9   10 1
  17    9   15 ar
  18   10   11 am
  19   10   21 2
  20   11   50 1
  21   12   13 ar
  22   12   51 1
  23   13   14 ar
  24   13   52 1
  25   14   15 ar
  26   14   53 1
  27   15   54 1
  28   16   17 am
  29   16   22 2
  30   17   18 1
  31   17   55 1
  32   18   19 1
  33   18   56 1
  34   18   57 1
  35   19   20 1
  36   19   58 1
  37   19   59 1
  38   20   23 1
  39   20   27 1
  40   23   24 1
  41   23   60 1
  42   23   61 1
  43   24   25 1
  44   24   62 1
  45   24   63 1
  46   25   26 1
  47   25   64 1
  48   25   65 1
  49   26   27 1
  50   26   66 1
  51   26   67 1
  52   27   28 1
  53   27   68 1
  54   28   29 1
  55   28   69 1
  56   28   70 1
  57   29   30 1
  58   29   33 1
  59   30   31 1
  60   30   71 1
  61   30   72 1
  62   31   32 1
  63   31   73 1
  64   31   74 1
  65   32   75 1
  66   32   76 1
  67   32   77 1
  68   33   34 1
  69   33   78 1
  70   33   79 1
  71   34   35 1
  72   34   80 1
  73   34   81 1
  74   35   36 1
  75   35   82 1
  76   35   83 1
  77   36   37 am
  78   36   40 am
  79   37   38 1
  80   37   42 2
  81   38   39 ar
  82   38   43 ar
  83   39   40 1
  84   39   46 ar
  85   40   41 2
  86   43   44 ar
  87   43   84 1
  88   44   45 ar
  89   44   85 1
  90   45   46 ar
  91   45   86 1
  92   46   87 1

#	End of record

