#	Name: ASD01913468
#	Creating user name:	WinNT
#	Creation time:	15. 06. 2019 20:01

#	Modifying user name:	WinNT
#	Modification time:	15. 06. 2019 20:01

#	Program:	/corina/corina34_cracker 3.40 0067  02.08.2006

@<TRIPOS>MOLECULE
ASD01913468
  36   38    0    0    0
SMALL
NO_CHARGES


@<TRIPOS>ATOM
   1 C1             0.9803     0.0083    -1.1334 C.ar    
   2 C2             0.1005     0.0054    -0.0558 C.ar    
   3 C3             0.4367     0.7117     1.0903 C.ar    
   4 N4             1.5722     1.3770     1.1615 N.ar    
   5 C5             2.4279     1.4000     0.1583 C.ar    
   6 C6             2.1630     0.7208    -1.0160 C.ar    
   7 C7            -1.0157    -2.0324    -0.1992 C.ar    
   8 N8             0.1590    -2.6350    -0.2939 N.ar    
   9 C9             0.2638    -3.9494    -0.3634 C.ar    
  10 C10           -0.8569    -4.7511    -0.3400 C.ar    
  11 C11           -2.1166    -4.1579    -0.2410 C.ar    
  12 C12           -2.1895    -2.7702    -0.1694 C.ar    
  13 N13           -3.2734    -4.9368    -0.2150 N.am    
  14 C14           -4.3279    -4.5526     0.5313 C.2     
  15 O15           -1.0717    -0.6788    -0.1249 O.3     
  16 C16           -5.5187    -5.4227     0.6315 C.ar    
  17 C17           -5.5527    -6.6434    -0.0465 C.ar    
  18 C18           -6.6642    -7.4576     0.0460 C.ar    
  19 C19           -7.7488    -7.0720     0.8081 C.ar    
  20 C20           -7.7281    -5.8534     1.4921 C.ar    
  21 C21           -6.6075    -5.0295     1.4073 C.ar    
  22 O22           -4.2997    -3.4905     1.1218 O.2     
  23 C23           -8.8541    -5.4546     2.2819 C.1     
  24 N24           -9.7473    -5.1381     2.9084 N.1     
  25 H25            0.7494    -0.5353    -2.0377 H       
  26 H26           -0.2393     0.7165     1.9327 H       
  27 H27            3.3480     1.9570     0.2555 H       
  28 H28            2.8697     0.7449    -1.8324 H       
  29 H29            1.2411    -4.4025    -0.4399 H       
  30 H30           -0.7617    -5.8253    -0.3980 H       
  31 H31           -3.1461    -2.2751    -0.0916 H       
  32 H32           -3.3189    -5.7550    -0.7340 H       
  33 H33           -4.7078    -6.9511    -0.6447 H       
  34 H34           -6.6853    -8.4003    -0.4806 H       
  35 H35           -8.6152    -7.7132     0.8755 H       
  36 H36           -6.5860    -4.0870     1.9341 H       
@<TRIPOS>BOND
   1    1    2 ar
   2    1    6 ar
   3    1   25 1
   4    2    3 ar
   5    2   15 1
   6    3    4 ar
   7    3   26 1
   8    4    5 ar
   9    5    6 ar
  10    5   27 1
  11    6   28 1
  12    7    8 ar
  13    7   12 ar
  14    7   15 1
  15    8    9 ar
  16    9   10 ar
  17    9   29 1
  18   10   11 ar
  19   10   30 1
  20   11   12 ar
  21   11   13 1
  22   12   31 1
  23   13   14 am
  24   13   32 1
  25   14   16 1
  26   14   22 2
  27   16   17 ar
  28   16   21 ar
  29   17   18 ar
  30   17   33 1
  31   18   19 ar
  32   18   34 1
  33   19   20 ar
  34   19   35 1
  35   20   21 ar
  36   20   23 1
  37   21   36 1
  38   23   24 3

#	End of record

