#	Name: ASD01810788
#	Creating user name:	WinNT
#	Creation time:	15. 06. 2019 19:25

#	Modifying user name:	WinNT
#	Modification time:	15. 06. 2019 19:25

#	Program:	/corina/corina34_cracker 3.40 0067  02.08.2006

@<TRIPOS>MOLECULE
ASD01810788
  35   36    0    0    0
SMALL
NO_CHARGES


@<TRIPOS>ATOM
   1 C1             0.5084     1.4300    -0.1391 C.2     
   2 C2             0.2572    -0.0243    -0.0704 C.ar    
   3 C3             1.3295    -0.9201    -0.0505 C.ar    
   4 C4             1.0956    -2.2788     0.0142 C.ar    
   5 C5            -0.1978    -2.7618     0.0595 C.ar    
   6 C6            -1.2775    -1.8779     0.0403 C.ar    
   7 C7            -1.0497    -0.5060    -0.0195 C.ar    
   8 O8             1.6459     1.8530    -0.0876 O.2     
   9 O9            -0.5237     2.2866    -0.2644 O.3     
  10 S10           -4.0258    -1.2826     0.0338 S.3     
  11 C11           -5.3988    -2.4586     0.1229 C.3     
  12 C12           -2.6632    -2.3984     0.0885 C.2     
  13 N13           -2.8748    -3.6820     0.1714 N.2     
  14 C14            2.7437    -0.4018    -0.1001 C.3     
  15 C15           -0.4435    -4.2470     0.1295 C.3     
  16 C16           -0.0898    -5.0804    -1.1039 C.3     
  17 C17            0.7802    -5.1651     0.1518 C.3     
  18 C18           -0.2026     3.7013    -0.3257 C.3     
  19 H19            1.9275    -2.9674     0.0290 H       
  20 H20           -1.8821     0.1821    -0.0301 H       
  21 H21           -6.3439    -1.9161     0.0995 H       
  22 H22           -5.3496    -3.1397    -0.7267 H       
  23 H23           -5.3297    -3.0282     1.0497 H       
  24 H24           -3.7824    -4.0229     0.2029 H       
  25 H25            3.0642    -0.1237     0.9039 H       
  26 H26            3.4018    -1.1784    -0.4897 H       
  27 H27            2.7878     0.4718    -0.7506 H       
  28 H28           -1.3132    -4.5528     0.7110 H       
  29 H29           -0.7266    -5.9347    -1.3336 H       
  30 H30            0.3205    -4.5544    -1.9660 H       
  31 H31            1.7629    -4.6949     0.1158 H       
  32 H32            0.7158    -6.0752     0.7482 H       
  33 H33            0.3138     3.9966     0.5877 H       
  34 H34            0.4413     3.8908    -1.1845 H       
  35 H35           -1.1217     4.2785    -0.4262 H       
@<TRIPOS>BOND
   1    1    2 1
   2    1    8 2
   3    1    9 1
   4    2    3 ar
   5    2    7 ar
   6    3    4 ar
   7    3   14 1
   8    4    5 ar
   9    4   19 1
  10    5    6 ar
  11    5   15 1
  12    6    7 ar
  13    6   12 1
  14    7   20 1
  15    9   18 1
  16   10   11 1
  17   10   12 1
  18   11   21 1
  19   11   22 1
  20   11   23 1
  21   12   13 2
  22   13   24 1
  23   14   25 1
  24   14   26 1
  25   14   27 1
  26   15   16 1
  27   15   17 1
  28   15   28 1
  29   16   17 1
  30   16   29 1
  31   16   30 1
  32   17   31 1
  33   17   32 1
  34   18   33 1
  35   18   34 1
  36   18   35 1

#	End of record

