#	Name: ASD02408392
#	Creating user name:	WinNT
#	Creation time:	15. 06. 2019 20:21

#	Modifying user name:	WinNT
#	Modification time:	15. 06. 2019 20:21

#	Program:	/corina/corina34_cracker 3.40 0067  02.08.2006

@<TRIPOS>MOLECULE
ASD02408392
  25   26    0    0    0
SMALL
NO_CHARGES


@<TRIPOS>ATOM
   1 C1             0.0033     1.3725    -0.2999 C.2     
   2 C2             0.0108    -0.0146    -0.0201 C.2     
   3 C3             1.3128     1.8245    -0.1516 C.2     
   4 N4             2.0635     0.7571     0.1997 N.pl3   
   5 N5             1.2313    -0.3650     0.2730 N.2     
   6 C6             3.4429     0.7718     0.4481 C.ar    
   7 C7             3.9899     1.7415     1.2767 C.ar    
   8 C8             5.3510     1.7534     1.5198 C.ar    
   9 C9             6.1675     0.8001     0.9376 C.ar    
  10 C10            5.6255    -0.1670     0.1112 C.ar    
  11 C11            4.2649    -0.1881    -0.1303 C.ar    
  12 N12            1.7591     3.1179    -0.3304 N.pl3   
  13 C13           -1.1614     2.1803    -0.6803 C.2     
  14 N14           -2.3744     1.6033    -0.7913 N.am    
  15 O15           -1.0320     3.3710    -0.8955 O.2     
  16 Cl16           3.5852    -1.4029    -1.1675 Cl      
  17 Cl17           6.0361     2.9660     2.5562 Cl      
  18 H18           -0.8473    -0.6700    -0.0449 H       
  19 H19            3.3531     2.4862     1.7309 H       
  20 H20            7.2304     0.8116     1.1286 H       
  21 H21            6.2653    -0.9096    -0.3422 H       
  22 H22            1.1233     3.8322    -0.4930 H       
  23 H23            2.7086     3.3128    -0.2936 H       
  24 H24           -2.4775     0.6542    -0.6198 H       
  25 H25           -3.1442     2.1372    -1.0427 H       
@<TRIPOS>BOND
   1    1    2 1
   2    1    3 2
   3    1   13 1
   4    2    5 2
   5    2   18 1
   6    3    4 1
   7    3   12 1
   8    4    5 1
   9    4    6 1
  10    6    7 ar
  11    6   11 ar
  12    7    8 ar
  13    7   19 1
  14    8    9 ar
  15    8   17 1
  16    9   10 ar
  17    9   20 1
  18   10   11 ar
  19   10   21 1
  20   11   16 1
  21   12   22 1
  22   12   23 1
  23   13   14 am
  24   13   15 2
  25   14   24 1
  26   14   25 1

#	End of record

