#	Name: ASD01900837
#	Creating user name:	WinNT
#	Creation time:	15. 06. 2019 19:52

#	Modifying user name:	WinNT
#	Modification time:	15. 06. 2019 19:52

#	Program:	/corina/corina34_cracker 3.40 0067  02.08.2006

@<TRIPOS>MOLECULE
ASD01900837
  64   68    0    0    0
SMALL
NO_CHARGES


@<TRIPOS>ATOM
   1 C1             0.1059     1.4920    -1.3067 C.ar    
   2 C2             0.0506     0.1162    -1.3041 C.ar    
   3 C3             1.0405    -0.6295    -0.6572 C.ar    
   4 C4             2.0885     0.0169    -0.0034 C.ar    
   5 C5             2.1446     1.4001    -0.0015 C.ar    
   6 C6             1.1552     2.1472    -0.6622 C.ar    
   7 N7             3.1660     2.0795     0.6589 N.pl3   
   8 C8             3.5140     3.4264     0.2009 C.3     
   9 N9             2.3507     4.2235    -0.1809 N.am    
  10 C10            1.2404     3.6207    -0.6572 C.2     
  11 C11            2.3868     5.6172    -0.0512 C.ar    
  12 C12            2.8749     6.3992    -1.0898 C.ar    
  13 C13            2.9102     7.7736    -0.9611 C.ar    
  14 C14            2.4586     8.3732     0.2055 C.ar    
  15 C15            1.9708     7.5927     1.2435 C.ar    
  16 C16            1.9292     6.2186     1.1139 C.ar    
  17 O17            2.4945     9.7265     0.3319 O.3     
  18 O18            0.3161     4.2880    -1.0803 O.2     
  19 C19            0.9755    -2.1075    -0.6661 C.2     
  20 C20            4.4794     4.1598     1.1429 C.3     
  21 C21            2.0137    10.2764     1.5601 C.3     
  22 F22            2.7751     9.7793     2.6232 F       
  23 F23            2.1220    11.6707     1.5208 F       
  24 F24            0.6733     9.9176     1.7386 F       
  25 O25            1.8347    -2.7565    -0.1045 O.2     
  26 O26           -0.0367    -2.7333    -1.2970 O.3     
  27 C27           -0.0364    -4.1850    -1.2648 C.3     
  28 C28           -1.2530    -4.7123    -2.0281 C.3     
  29 C29            4.6455     3.4484    -0.8353 C.3     
  30 N30            5.1724     4.6110    -0.0849 N.3     
  31 C31            6.6304     4.5206     0.0701 C.3     
  32 C32            7.2970     4.8695    -1.2357 C.ar    
  33 C33            7.0896     5.4978     1.1541 C.3     
  34 C34            6.6458     5.6757    -2.1506 C.ar    
  35 C35            7.2568     5.9953    -3.3485 C.ar    
  36 C36            8.5195     5.5091    -3.6324 C.ar    
  37 C37            9.1717     4.7035    -2.7184 C.ar    
  38 C38            8.5629     4.3878    -1.5166 C.ar    
  39 Cl39           9.3845     3.3817    -0.3649 Cl      
  40 H40           -0.6597     2.0630    -1.8109 H       
  41 H41           -0.7621    -0.3895    -1.8043 H       
  42 H42            2.8521    -0.5583     0.4991 H       
  43 H43            3.6351     1.6707     1.4031 H       
  44 H44            3.2271     5.9325    -1.9978 H       
  45 H45            3.2897     8.3819    -1.7688 H       
  46 H46            1.6198     8.0602     2.1516 H       
  47 H47            1.5450     5.6114     1.9202 H       
  48 H48            4.0140     4.9679     1.7071 H       
  49 H49            5.0770     3.4938     1.7653 H       
  50 H50            0.8752    -4.5585    -1.7313 H       
  51 H51           -0.0809    -4.5255    -0.2303 H       
  52 H52           -2.1645    -4.3387    -1.5615 H       
  53 H53           -1.2085    -4.3718    -3.0626 H       
  54 H54           -1.2528    -5.8020    -2.0039 H       
  55 H55            5.2923     2.5718    -0.7984 H       
  56 H56            4.3126     3.6910    -1.8444 H       
  57 H57            6.9030     3.5051     0.3572 H       
  58 H58            6.8170     6.5133     0.8670 H       
  59 H59            6.6075     5.2454     2.0986 H       
  60 H60            8.1714     5.4307     1.2691 H       
  61 H61            5.6592     6.0555    -1.9295 H       
  62 H62            6.7475     6.6249    -4.0631 H       
  63 H63            8.9962     5.7587    -4.5689 H       
  64 H64           10.1580     4.3234    -2.9405 H       
@<TRIPOS>BOND
   1    1    2 ar
   2    1    6 ar
   3    1   40 1
   4    2    3 ar
   5    2   41 1
   6    3    4 ar
   7    3   19 1
   8    4    5 ar
   9    4   42 1
  10    5    7 1
  11    5    6 ar
  12    6   10 1
  13    7    8 1
  14    7   43 1
  15    8    9 1
  16    8   20 1
  17    8   29 1
  18    9   10 am
  19    9   11 1
  20   10   18 2
  21   11   12 ar
  22   11   16 ar
  23   12   13 ar
  24   12   44 1
  25   13   14 ar
  26   13   45 1
  27   14   15 ar
  28   14   17 1
  29   15   16 ar
  30   15   46 1
  31   16   47 1
  32   17   21 1
  33   19   25 2
  34   19   26 1
  35   20   30 1
  36   20   48 1
  37   20   49 1
  38   21   22 1
  39   21   23 1
  40   21   24 1
  41   26   27 1
  42   27   28 1
  43   27   50 1
  44   27   51 1
  45   28   52 1
  46   28   53 1
  47   28   54 1
  48   29   30 1
  49   29   55 1
  50   29   56 1
  51   30   31 1
  52   31   32 1
  53   31   33 1
  54   31   57 1
  55   32   34 ar
  56   32   38 ar
  57   33   58 1
  58   33   59 1
  59   33   60 1
  60   34   35 ar
  61   34   61 1
  62   35   36 ar
  63   35   62 1
  64   36   37 ar
  65   36   63 1
  66   37   38 ar
  67   37   64 1
  68   38   39 1

#	End of record

