#	Name: ASD01814804
#	Creating user name:	WinNT
#	Creation time:	15. 06. 2019 19:33

#	Modifying user name:	WinNT
#	Modification time:	15. 06. 2019 19:33

#	Program:	/corina/corina34_cracker 3.40 0067  02.08.2006

@<TRIPOS>MOLECULE
ASD01814804
  48   51    0    0    0
SMALL
NO_CHARGES


@<TRIPOS>ATOM
   1 C1            -0.0187     1.5258     0.0104 C.3     
   2 C2             0.0021    -0.0041     0.0020 C.3     
   3 N3             0.6878    -0.4765    -1.2033 N.am    
   4 C4             0.8268    -1.7986    -1.4250 C.2     
   5 O5             0.3829    -2.5998    -0.6242 O.2     
   6 C6             1.5146    -2.2725    -2.6339 C.2     
   7 C7             2.0671    -1.5002    -3.6142 C.2     
   8 N8             2.6124    -2.2912    -4.5678 N.pl3   
   9 C9             3.2932    -1.8041    -5.7700 C.3     
  10 C10            2.3168    -1.7600    -6.9171 C.ar    
  11 C11            2.1576    -2.8681    -7.7295 C.ar    
  12 C12            1.2644    -2.8332    -8.7812 C.ar    
  13 C13            0.5227    -1.6793    -9.0238 C.ar    
  14 C14            0.6869    -0.5662    -8.2026 C.ar    
  15 C15            1.5790    -0.6135    -7.1504 C.ar    
  16 C16           -0.4393    -1.6359   -10.1540 C.2     
  17 C17           -0.7105    -2.6824   -11.0568 C.2     
  18 N18           -1.6113    -2.2631   -11.9055 N.2     
  19 N19           -1.9481    -0.9434   -11.5810 N.pl3   
  20 C20           -2.9222    -0.1072   -12.2868 C.3     
  21 C21           -1.2255    -0.5770   -10.5033 C.2     
  22 C22            2.4367    -3.6203    -4.2464 C.ar    
  23 C23            2.7960    -4.8118    -4.8694 C.ar    
  24 C24            2.4527    -6.0031    -4.2546 C.ar    
  25 C25            1.7688    -5.9802    -3.0499 C.ar    
  26 N26            1.4369    -4.8429    -2.4755 N.ar    
  27 C27            1.7486    -3.6751    -3.0223 C.ar    
  28 H28            1.0039     1.9031     0.0027 H       
  29 H29           -0.5459     1.8868    -0.8726 H       
  30 H30           -0.5289     1.8773     0.9072 H       
  31 H31            0.5293    -0.3651     0.8851 H       
  32 H32           -1.0205    -0.3814     0.0098 H       
  33 H33            1.0417     0.1622    -1.8418 H       
  34 H34            2.0686    -0.4203    -3.6273 H       
  35 H35            3.6833    -0.8030    -5.5863 H       
  36 H36            4.1158    -2.4746    -6.0186 H       
  37 H37            2.7334    -3.7620    -7.5408 H       
  38 H38            1.1411    -3.6988    -9.4152 H       
  39 H39            0.1145     0.3310    -8.3866 H       
  40 H40            1.7041     0.2475    -6.5106 H       
  41 H41           -0.2533    -3.6608   -11.0491 H       
  42 H42           -3.9077    -0.2426   -11.8412 H       
  43 H43           -2.6280     0.9393   -12.2070 H       
  44 H44           -2.9555    -0.3961   -13.3373 H       
  45 H45           -1.2608     0.3820   -10.0078 H       
  46 H46            3.3288    -4.8069    -5.8089 H       
  47 H47            2.7162    -6.9455    -4.7116 H       
  48 H48            1.5028    -6.9122    -2.5734 H       
@<TRIPOS>BOND
   1    1    2 1
   2    1   28 1
   3    1   29 1
   4    1   30 1
   5    2    3 1
   6    2   31 1
   7    2   32 1
   8    3    4 am
   9    3   33 1
  10    4    5 2
  11    4    6 1
  12    6   27 1
  13    6    7 2
  14    7    8 1
  15    7   34 1
  16    8    9 1
  17    8   22 1
  18    9   10 1
  19    9   35 1
  20    9   36 1
  21   10   15 ar
  22   10   11 ar
  23   11   12 ar
  24   11   37 1
  25   12   13 ar
  26   12   38 1
  27   13   14 ar
  28   13   16 1
  29   14   15 ar
  30   14   39 1
  31   15   40 1
  32   16   21 2
  33   16   17 1
  34   17   18 2
  35   17   41 1
  36   18   19 1
  37   19   20 1
  38   19   21 1
  39   20   42 1
  40   20   43 1
  41   20   44 1
  42   21   45 1
  43   22   27 ar
  44   22   23 ar
  45   23   24 ar
  46   23   46 1
  47   24   25 ar
  48   24   47 1
  49   25   26 ar
  50   25   48 1
  51   26   27 ar

#	End of record

