#	Name: ASD00170581
#	Creating user name:	WinNT
#	Creation time:	15. 06. 2019 18:32

#	Modifying user name:	WinNT
#	Modification time:	15. 06. 2019 18:32

#	Program:	/corina/corina34_cracker 3.40 0067  02.08.2006

@<TRIPOS>MOLECULE
ASD00170581
  56   59    0    0    0
SMALL
NO_CHARGES


@<TRIPOS>ATOM
   1 C1            -0.5463     1.4595    -0.0103 C.3     
   2 C2            -0.2427    -0.0166    -0.0039 C.2     
   3 C3            -0.1736    -0.7416     1.1017 C.2     
   4 S4             0.1976    -2.4157     0.7310 S.3     
   5 C5             0.2565    -2.1116    -0.9451 C.2     
   6 C6            -0.0031    -0.7862    -1.2065 C.2     
   7 C7            -0.0246    -0.2145    -2.5527 C.2     
   8 O8             1.0162     0.1211    -3.0884 O.2     
   9 C9            -1.3104    -0.0440    -3.2631 C.ar    
  10 C10           -1.3472     0.6025    -4.4999 C.ar    
  11 C11           -2.5491     0.7581    -5.1579 C.ar    
  12 C12           -3.7182     0.2750    -4.5938 C.ar    
  13 C13           -3.6879    -0.3669    -3.3667 C.ar    
  14 C14           -2.4912    -0.5339    -2.7023 C.ar    
  15 N15            0.5222    -3.0646    -1.9074 N.pl3   
  16 Cl16          -5.2276     0.4751    -5.4278 Cl      
  17 N17            0.7081     2.2179     0.0853 N.3     
  18 C18           -0.3851    -0.2011     2.4925 C.3     
  19 C19            0.4778     3.6492    -0.1552 C.3     
  20 C20            1.7910     4.4129     0.0313 C.3     
  21 N21            2.7997     3.8816    -0.8959 N.3     
  22 C22            3.0299     2.4502    -0.6554 C.3     
  23 C23            1.7168     1.6866    -0.8419 C.3     
  24 C24            3.9930     4.6030    -0.8050 C.ar    
  25 C25            4.0973     5.6659     0.0828 C.ar    
  26 C26            5.2781     6.3773     0.1706 C.ar    
  27 C27            6.3562     6.0319    -0.6248 C.ar    
  28 C28            6.2548     4.9734    -1.5107 C.ar    
  29 C29            5.0789     4.2548    -1.5982 C.ar    
  30 Cl30           7.8386     6.9282    -0.5118 Cl      
  31 C31            7.4310     4.6008    -2.3761 C.3     
  32 F32            7.0898     3.5091    -3.1817 F       
  33 F33            7.7770     5.6878    -3.1859 F       
  34 F34            8.5179     4.2595    -1.5641 F       
  35 H35           -1.0593     1.7209    -0.9359 H       
  36 H36           -1.1839     1.7030     0.8396 H       
  37 H37           -0.4364     0.9803    -4.9404 H       
  38 H38           -2.5789     1.2581    -6.1147 H       
  39 H39           -4.6028    -0.7413    -2.9316 H       
  40 H40           -2.4687    -1.0349    -1.7457 H       
  41 H41            0.7638    -3.9662    -1.6434 H       
  42 H42            0.4674    -2.8328    -2.8477 H       
  43 H43           -1.4403    -0.2770     2.7552 H       
  44 H44            0.2082    -0.7790     3.2010 H       
  45 H45           -0.0763     0.8437     2.5271 H       
  46 H46            0.1149     3.7932    -1.1729 H       
  47 H47           -0.2634     4.0222     0.5517 H       
  48 H48            1.6289     5.4709    -0.1749 H       
  49 H49            2.1398     4.2913     1.0568 H       
  50 H50            3.7711     2.0773    -1.3623 H       
  51 H51            3.3929     2.3063     0.3623 H       
  52 H52            1.8789     0.6286    -0.6357 H       
  53 H53            1.3679     1.8082    -1.8674 H       
  54 H54            3.2560     5.9362     0.7036 H       
  55 H55            5.3597     7.2042     0.8605 H       
  56 H56            5.0005     3.4287    -2.2895 H       
@<TRIPOS>BOND
   1    1    2 1
   2    1   17 1
   3    1   35 1
   4    1   36 1
   5    2    3 2
   6    2    6 1
   7    3    4 1
   8    3   18 1
   9    4    5 1
  10    5    6 2
  11    5   15 1
  12    6    7 1
  13    7    8 2
  14    7    9 1
  15    9   10 ar
  16    9   14 ar
  17   10   11 ar
  18   10   37 1
  19   11   12 ar
  20   11   38 1
  21   12   13 ar
  22   12   16 1
  23   13   14 ar
  24   13   39 1
  25   14   40 1
  26   15   41 1
  27   15   42 1
  28   17   19 1
  29   17   23 1
  30   18   43 1
  31   18   44 1
  32   18   45 1
  33   19   20 1
  34   19   46 1
  35   19   47 1
  36   20   21 1
  37   20   48 1
  38   20   49 1
  39   21   22 1
  40   21   24 1
  41   22   23 1
  42   22   50 1
  43   22   51 1
  44   23   52 1
  45   23   53 1
  46   24   25 ar
  47   24   29 ar
  48   25   26 ar
  49   25   54 1
  50   26   27 ar
  51   26   55 1
  52   27   28 ar
  53   27   30 1
  54   28   29 ar
  55   28   31 1
  56   29   56 1
  57   31   32 1
  58   31   33 1
  59   31   34 1

#	End of record

