#	Name: ASD03731897
#	Creating user name:	WinNT
#	Creation time:	15. 06. 2019 20:46

#	Modifying user name:	WinNT
#	Modification time:	15. 06. 2019 20:46

#	Program:	/corina/corina34_cracker 3.40 0067  02.08.2006

@<TRIPOS>MOLECULE
ASD03731897
  36   37    0    0    0
SMALL
NO_CHARGES


@<TRIPOS>ATOM
   1 C1             0.3755     1.0939     1.9778 C.2     
   2 C2             0.2920    -0.2825     1.4513 C.ar    
   3 C3             1.3746    -0.8359     0.7620 C.ar    
   4 C4             1.2928    -2.1200     0.2724 C.ar    
   5 C5             0.1350    -2.8661     0.4627 C.ar    
   6 C6            -0.9440    -2.3191     1.1473 C.ar    
   7 C7            -0.8674    -1.0376     1.6459 C.ar    
   8 O8             1.3870     1.7478     1.8119 O.2     
   9 N9            -0.6715     1.6277     2.6374 N.am    
  10 S10           -0.5778     3.1720     3.2281 S.o2    
  11 O11           -1.8287     3.3782     3.8699 O.2     
  12 O12            0.6364     3.1919     3.9660 O.2     
  13 C13           -0.4413     4.2145     1.7498 C.3     
  14 C14            2.4595    -2.7176    -0.4710 C.3     
  15 O15            0.0580    -4.1313    -0.0217 O.3     
  16 C16           -1.1276    -4.7861     0.0897 C.ar    
  17 C17           -2.0815    -4.6711    -0.9113 C.ar    
  18 C18           -3.2858    -5.3379    -0.7963 C.ar    
  19 C19           -3.5412    -6.1201     0.3162 C.ar    
  20 C20           -2.5912    -6.2361     1.3156 C.ar    
  21 C21           -1.3836    -5.5751     1.2019 C.ar    
  22 Cl22          -5.0557    -6.9566     0.4585 Cl      
  23 H23            2.2739    -0.2567     0.6132 H       
  24 H24           -1.8418    -2.9015     1.2925 H       
  25 H25           -1.7042    -0.6152     2.1822 H       
  26 H26           -1.4799     1.1074     2.7663 H       
  27 H27           -1.3208     4.0716     1.1220 H       
  28 H28           -0.3739     5.2607     2.0480 H       
  29 H29            0.4527     3.9375     1.1912 H       
  30 H30            3.1193    -3.2230     0.2342 H       
  31 H31            2.0934    -3.4358    -1.2047 H       
  32 H32            3.0096    -1.9264    -0.9803 H       
  33 H33           -1.8827    -4.0605    -1.7796 H       
  34 H34           -4.0287    -5.2484    -1.5751 H       
  35 H35           -2.7926    -6.8468     2.1833 H       
  36 H36           -0.6406    -5.6695     1.9801 H       
@<TRIPOS>BOND
   1    1    2 1
   2    1    8 2
   3    1    9 am
   4    2    3 ar
   5    2    7 ar
   6    3    4 ar
   7    3   23 1
   8    4    5 ar
   9    4   14 1
  10    5    6 ar
  11    5   15 1
  12    6    7 ar
  13    6   24 1
  14    7   25 1
  15    9   10 am
  16    9   26 1
  17   10   11 2
  18   10   12 2
  19   10   13 1
  20   13   27 1
  21   13   28 1
  22   13   29 1
  23   14   30 1
  24   14   31 1
  25   14   32 1
  26   15   16 1
  27   16   17 ar
  28   16   21 ar
  29   17   18 ar
  30   17   33 1
  31   18   19 ar
  32   18   34 1
  33   19   20 ar
  34   19   22 1
  35   20   21 ar
  36   20   35 1
  37   21   36 1

#	End of record

