#	Name: ASD04910105
#	Creating user name:	WinNT
#	Creation time:	15. 06. 2019 20:55

#	Modifying user name:	WinNT
#	Modification time:	15. 06. 2019 20:55

#	Program:	/corina/corina34_cracker 3.40 0067  02.08.2006

@<TRIPOS>MOLECULE
ASD04910105
  59   59    0    0    0
SMALL
NO_CHARGES


@<TRIPOS>ATOM
   1 C1             1.5905     1.5701     0.1864 C.2     
   2 C2             1.1980     0.1154     0.2148 C.3     
   3 C3             2.3980    -0.7445    -0.1870 C.3     
   4 O4             2.7146     1.8866    -0.1234 O.2     
   5 O5             0.6896     2.5145     0.4999 O.3     
   6 C6             1.6763    -2.7874    -1.3020 C.2     
   7 C7             1.6892    -2.0501    -2.5835 C.ar    
   8 C8             1.8453    -2.7392    -3.7871 C.ar    
   9 C9             1.8560    -2.0453    -4.9794 C.ar    
  10 C10            1.7129    -0.6691    -4.9837 C.ar    
  11 C11            1.5578     0.0201    -3.7940 C.ar    
  12 C12            1.5396    -0.6624    -2.5952 C.ar    
  13 O13            1.3589    -3.9605    -1.2790 O.2     
  14 N14            2.0165    -2.1587    -0.1594 N.am    
  15 C15            1.7265     0.0825    -6.2898 C.3     
  16 C16            0.2905     0.4055    -6.7073 C.3     
  17 C17            0.2962     1.0572    -8.0916 C.3     
  18 O18            2.4616     1.2977    -6.1324 O.3     
  19 C19            2.0048    -2.8896     1.1102 C.3     
  20 C20            1.0502    -2.1999     2.0869 C.3     
  21 C21            1.5364    -4.3258     0.8676 C.3     
  22 C22            3.4156    -2.9064     1.7020 C.3     
  23 C23            1.1375     3.8948     0.4512 C.3     
  24 C24            1.6071     4.2290    -0.9661 C.3     
  25 C25           -0.0184     4.8200     0.8369 C.3     
  26 C26            2.2958     4.0900     1.4316 C.3     
  27 H27            0.8779    -0.1550     1.2210 H       
  28 H28            0.3793    -0.0538    -0.4847 H       
  29 H29            2.7181    -0.4742    -1.1933 H       
  30 H30            3.2167    -0.5754     0.5124 H       
  31 H31            1.9579    -3.8134    -3.7851 H       
  32 H32            1.9767    -2.5773    -5.9115 H       
  33 H33            1.4465     1.0943    -3.8042 H       
  34 H34            1.4139    -0.1237    -1.6676 H       
  35 H35            2.1987    -0.5310    -7.0571 H       
  36 H36           -0.2936    -0.5142    -6.7412 H       
  37 H37           -0.1525     1.0909    -5.9848 H       
  38 H38           -0.7269     1.2873    -8.3890 H       
  39 H39            0.8803     1.9769    -8.0578 H       
  40 H40            0.7392     0.3718    -8.8141 H       
  41 H41            2.0974     1.8940    -5.4639 H       
  42 H42            0.0452    -2.1879     1.6653 H       
  43 H43            1.0415    -2.7437     3.0315 H       
  44 H44            1.3840    -1.1768     2.2597 H       
  45 H45            2.2142    -4.8159     0.1688 H       
  46 H46            1.5314    -4.8707     1.8116 H       
  47 H47            0.5298    -4.3139     0.4496 H       
  48 H48            3.7494    -1.8833     1.8748 H       
  49 H49            3.4069    -3.4502     2.6466 H       
  50 H50            4.0957    -3.3978     1.0062 H       
  51 H51            0.7819     4.0899    -1.6645 H       
  52 H52            1.9433     5.2652    -1.0026 H       
  53 H53            2.4306     3.5699    -1.2408 H       
  54 H54           -0.3530     4.5819     1.8466 H       
  55 H55            0.3178     5.8562     0.8004 H       
  56 H56           -0.8436     4.6809     0.1385 H       
  57 H57            3.1193     3.4309     1.1568 H       
  58 H58            2.6321     5.1262     1.3951 H       
  59 H59            1.9613     3.8519     2.4413 H       
@<TRIPOS>BOND
   1    1    2 1
   2    1    4 2
   3    1    5 1
   4    2    3 1
   5    2   27 1
   6    2   28 1
   7    3   14 1
   8    3   29 1
   9    3   30 1
  10    5   23 1
  11    6    7 1
  12    6   13 2
  13    6   14 am
  14    7    8 ar
  15    7   12 ar
  16    8    9 ar
  17    8   31 1
  18    9   10 ar
  19    9   32 1
  20   10   11 ar
  21   10   15 1
  22   11   12 ar
  23   11   33 1
  24   12   34 1
  25   14   19 1
  26   15   16 1
  27   15   18 1
  28   15   35 1
  29   16   17 1
  30   16   36 1
  31   16   37 1
  32   17   38 1
  33   17   39 1
  34   17   40 1
  35   18   41 1
  36   19   20 1
  37   19   22 1
  38   19   21 1
  39   20   42 1
  40   20   43 1
  41   20   44 1
  42   21   45 1
  43   21   46 1
  44   21   47 1
  45   22   48 1
  46   22   49 1
  47   22   50 1
  48   23   24 1
  49   23   26 1
  50   23   25 1
  51   24   51 1
  52   24   52 1
  53   24   53 1
  54   25   54 1
  55   25   55 1
  56   25   56 1
  57   26   57 1
  58   26   58 1
  59   26   59 1

#	End of record

