#	Name: ASD01883185
#	Creating user name:	WinNT
#	Creation time:	15. 06. 2019 19:45

#	Modifying user name:	WinNT
#	Modification time:	15. 06. 2019 19:45

#	Program:	/corina/corina34_cracker 3.40 0067  02.08.2006

@<TRIPOS>MOLECULE
ASD01883185
  58   60    0    0    0
SMALL
NO_CHARGES


@<TRIPOS>ATOM
   1 N1            -0.0162     1.3417     0.0094 N.am    
   2 C2             0.0021    -0.0041     0.0020 C.2     
   3 C3            -1.2161    -0.7274     0.0102 C.2     
   4 C4            -2.4261    -0.0112     0.0261 C.2     
   5 C5            -2.3786     1.3968     0.0332 C.2     
   6 C6            -1.1850     2.0325     0.0299 C.2     
   7 O7             1.0657    -0.6000    -0.0122 O.2     
   8 C8            -1.2151    -2.1594     0.0021 C.1     
   9 N9            -1.2144    -3.2953    -0.0044 N.1     
  10 C10            1.2513     2.0764     0.0013 C.3     
  11 C11            1.6787     2.3399    -1.4440 C.3     
  12 C12            3.0024     3.1072    -1.4525 C.3     
  13 C13            4.1050     2.2286    -0.8581 C.3     
  14 C14            3.3668     3.4794    -2.8911 C.3     
  15 C15           -3.7218    -0.7213     0.0347 C.ar    
  16 C16           -4.5708    -0.6162     1.1391 C.ar    
  17 C17           -5.7778    -1.2797     1.1433 C.ar    
  18 C18           -6.1513    -2.0534     0.0510 C.ar    
  19 C19           -5.3094    -2.1609    -1.0494 C.ar    
  20 C20           -4.1037    -1.4950    -1.0640 C.ar    
  21 O21           -7.3417    -2.7063     0.0591 O.3     
  22 C22           -7.6630    -3.4838    -1.0960 C.3     
  23 C23           -9.0318    -4.1399    -0.9045 C.3     
  24 N24          -10.0676    -3.1006    -0.8352 N.3     
  25 C25          -11.4123    -3.6923    -0.8899 C.3     
  26 C26          -12.4583    -2.5826    -0.7548 C.3     
  27 O27          -12.2517    -1.6118    -1.7846 O.3     
  28 C28          -10.9524    -1.0147    -1.7605 C.3     
  29 C29           -9.8911    -2.1086    -1.9057 C.3     
  30 H30           -3.2949     1.9683     0.0453 H       
  31 H31           -1.1610     3.1122     0.0354 H       
  32 H32            1.1242     3.0258     0.5214 H       
  33 H33            2.0168     1.4859     0.5046 H       
  34 H34            1.8057     1.3905    -1.9642 H       
  35 H35            0.9132     2.9304    -1.9474 H       
  36 H36            2.9002     4.0145    -0.8572 H       
  37 H37            5.0480     2.7753    -0.8642 H       
  38 H38            3.8453     1.9634     0.1668 H       
  39 H39            4.2071     1.3213    -1.4534 H       
  40 H40            2.5813     4.1053    -3.3146 H       
  41 H41            4.3098     4.0261    -2.8971 H       
  42 H42            3.4690     2.5721    -3.4864 H       
  43 H43           -4.2809    -0.0157     1.9887 H       
  44 H44           -6.4347    -1.1990     1.9968 H       
  45 H45           -5.6031    -2.7634    -1.8962 H       
  46 H46           -3.4501    -1.5788    -1.9197 H       
  47 H47           -7.6895    -2.8373    -1.9733 H       
  48 H48           -6.9064    -4.2558    -1.2363 H       
  49 H49           -9.2378    -4.8027    -1.7450 H       
  50 H50           -9.0324    -4.7158     0.0209 H       
  51 H51          -11.5460    -4.2046    -1.8427 H       
  52 H52          -11.5299    -4.4047    -0.0733 H       
  53 H53          -13.4565    -3.0095    -0.8521 H       
  54 H54          -12.3591    -2.1056     0.2202 H       
  55 H55          -10.8615    -0.3076    -2.5851 H       
  56 H56          -10.8094    -0.4921    -0.8147 H       
  57 H57           -8.8984    -1.6648    -1.8307 H       
  58 H58          -10.0006    -2.5955    -2.8748 H       
@<TRIPOS>BOND
   1    1    2 am
   2    1   10 1
   3    1    6 1
   4    2    3 1
   5    2    7 2
   6    3    4 2
   7    3    8 1
   8    4    5 1
   9    4   15 1
  10    5    6 2
  11    5   30 1
  12    6   31 1
  13    8    9 3
  14   10   11 1
  15   10   32 1
  16   10   33 1
  17   11   12 1
  18   11   34 1
  19   11   35 1
  20   12   13 1
  21   12   14 1
  22   12   36 1
  23   13   37 1
  24   13   38 1
  25   13   39 1
  26   14   40 1
  27   14   41 1
  28   14   42 1
  29   15   16 ar
  30   15   20 ar
  31   16   17 ar
  32   16   43 1
  33   17   18 ar
  34   17   44 1
  35   18   19 ar
  36   18   21 1
  37   19   20 ar
  38   19   45 1
  39   20   46 1
  40   21   22 1
  41   22   23 1
  42   22   47 1
  43   22   48 1
  44   23   24 1
  45   23   49 1
  46   23   50 1
  47   24   25 1
  48   24   29 1
  49   25   26 1
  50   25   51 1
  51   25   52 1
  52   26   27 1
  53   26   53 1
  54   26   54 1
  55   27   28 1
  56   28   29 1
  57   28   55 1
  58   28   56 1
  59   29   57 1
  60   29   58 1

#	End of record

