#	Name: ASD01884071
#	Creating user name:	WinNT
#	Creation time:	15. 06. 2019 19:47

#	Modifying user name:	WinNT
#	Modification time:	15. 06. 2019 19:47

#	Program:	/corina/corina34_cracker 3.40 0067  02.08.2006

@<TRIPOS>MOLECULE
ASD01884071
  52   54    0    0    0
SMALL
NO_CHARGES


@<TRIPOS>ATOM
   1 C1            -0.0251     1.3907    -0.1660 C.2     
   2 C2             0.0021    -0.0041     0.0020 C.2     
   3 C3            -1.2145    -0.6870     0.1859 C.2     
   4 C4            -2.3784    -0.0015     0.1985 C.2     
   5 N5            -2.4063     1.3470     0.0362 N.am    
   6 C6            -1.2744     2.0543    -0.1377 C.2     
   7 C7             1.1884     2.1269    -0.3562 C.1     
   8 N8             2.1510     2.7109    -0.5071 N.1     
   9 N9             1.1960    -0.6894    -0.0135 N.pl3   
  10 O10           -1.3265     3.2642    -0.2809 O.2     
  11 C11           -3.6936     2.0461     0.0572 C.3     
  12 C12           -4.0237     2.4637     1.4917 C.3     
  13 C13           -5.3681     3.1938     1.5137 C.3     
  14 C14            2.2213    -0.4429     1.0118 C.3     
  15 C15            2.6460    -1.7886     1.6090 C.3     
  16 N16            3.0549    -2.6939     0.5267 N.3     
  17 C17            1.9339    -2.9843    -0.3771 C.3     
  18 C18            1.4775    -1.6919    -1.0522 C.3     
  19 C19            3.6031    -3.8731     1.0401 C.ar    
  20 C20           -5.7579     3.5012     2.9609 C.3     
  21 C21           -5.2512     4.5015     0.7282 C.3     
  22 C22            4.0531    -4.8636     0.1773 C.ar    
  23 C23            4.5947    -6.0288     0.6857 C.ar    
  24 C24            4.6890    -6.2102     2.0542 C.ar    
  25 C25            4.2404    -5.2227     2.9189 C.ar    
  26 C26            3.7035    -4.0528     2.4136 C.ar    
  27 F27            4.3332    -5.4016     4.2548 F       
  28 F28            5.2181    -7.3506     2.5488 F       
  29 H29           -1.2177    -1.7591     0.3167 H       
  30 H30           -3.3058    -0.5364     0.3400 H       
  31 H31           -3.6362     2.9321    -0.5750 H       
  32 H32           -4.4734     1.3827    -0.3167 H       
  33 H33           -4.0811     1.5776     2.1239 H       
  34 H34           -3.2439     3.1270     1.8656 H       
  35 H35           -6.1315     2.5632     1.0579 H       
  36 H36            3.0838     0.0445     0.5572 H       
  37 H37            1.8095     0.1922     1.7961 H       
  38 H38            3.4824    -1.6362     2.2911 H       
  39 H39            1.8083    -2.2261     2.1521 H       
  40 H40            2.2538    -3.6990    -1.1354 H       
  41 H41            1.1061    -3.4052     0.1937 H       
  42 H42            0.5757    -1.8816    -1.6343 H       
  43 H43            2.2673    -1.3215    -1.7057 H       
  44 H44           -4.9945     4.1318     3.4166 H       
  45 H45           -6.7156     4.0214     2.9766 H       
  46 H46           -5.8412     2.5695     3.5205 H       
  47 H47           -6.2089     5.0216     0.7438 H       
  48 H48           -4.4878     5.1321     1.1839 H       
  49 H49           -4.9735     4.2825    -0.3029 H       
  50 H50            3.9795    -4.7235    -0.8910 H       
  51 H51            4.9446    -6.7989     0.0141 H       
  52 H52            3.3543    -3.2835     3.0864 H       
@<TRIPOS>BOND
   1    1    2 2
   2    1    7 1
   3    1    6 1
   4    2    3 1
   5    2    9 1
   6    3    4 2
   7    3   29 1
   8    4    5 1
   9    4   30 1
  10    5   11 1
  11    5    6 am
  12    6   10 2
  13    7    8 3
  14    9   14 1
  15    9   18 1
  16   11   12 1
  17   11   31 1
  18   11   32 1
  19   12   13 1
  20   12   33 1
  21   12   34 1
  22   13   20 1
  23   13   21 1
  24   13   35 1
  25   14   15 1
  26   14   36 1
  27   14   37 1
  28   15   16 1
  29   15   38 1
  30   15   39 1
  31   16   17 1
  32   16   19 1
  33   17   18 1
  34   17   40 1
  35   17   41 1
  36   18   42 1
  37   18   43 1
  38   19   22 ar
  39   19   26 ar
  40   20   44 1
  41   20   45 1
  42   20   46 1
  43   21   47 1
  44   21   48 1
  45   21   49 1
  46   22   23 ar
  47   22   50 1
  48   23   24 ar
  49   23   51 1
  50   24   25 ar
  51   24   28 1
  52   25   26 ar
  53   25   27 1
  54   26   52 1

#	End of record

