#	Name: ASD02030034
#	Creating user name:	WinNT
#	Creation time:	15. 06. 2019 20:14

#	Modifying user name:	WinNT
#	Modification time:	15. 06. 2019 20:14

#	Program:	/corina/corina34_cracker 3.40 0067  02.08.2006

@<TRIPOS>MOLECULE
ASD02030034
  59   63    0    0    0
SMALL
NO_CHARGES


@<TRIPOS>ATOM
   1 C1            -0.0657     1.0971    -0.0721 C.ar    
   2 C2            -0.1003    -0.2888    -0.0103 C.ar    
   3 C3            -1.3024    -0.9591     0.0556 C.ar    
   4 C4            -2.4980    -0.2464     0.0602 C.ar    
   5 C5            -2.4635     1.1575    -0.0025 C.ar    
   6 C6            -1.2352     1.8228    -0.0632 C.ar    
   7 N7            -3.7042    -0.9143     0.1251 N.am    
   8 C8            -4.8762    -0.2570     0.1310 C.2     
   9 C9            -4.9197     1.2033     0.0682 C.2     
  10 C10           -3.7244     1.9140     0.0022 C.2     
  11 C11           -3.7229     3.3904    -0.0626 C.ar    
  12 C12           -4.2004     4.1402     1.0144 C.ar    
  13 C13           -4.1961     5.5179     0.9472 C.ar    
  14 C14           -3.7206     6.1571    -0.1842 C.ar    
  15 C15           -3.2464     5.4203    -1.2552 C.ar    
  16 C16           -3.2386     4.0421    -1.1988 C.ar    
  17 C17           -6.2165     1.9159     0.0742 C.2     
  18 C18           -7.4893     1.3123     0.1373 C.2     
  19 C19           -8.4214     2.3040     0.1214 C.2     
  20 N20           -7.7509     3.4995     0.0502 N.am    
  21 N21           -6.3782     3.2220     0.0274 N.2     
  22 C22           -9.8889     2.1259     0.1710 C.ar    
  23 C23           -8.3135     4.7236     0.0129 C.2     
  24 C24           -7.4454     5.9540     0.0714 C.3     
  25 C25           -8.3267     7.2033     0.0127 C.3     
  26 C26           -7.4585     8.4337     0.0712 C.2     
  27 O27           -6.2580     8.3228     0.1515 O.2     
  28 O28           -8.0188     9.6529     0.0340 O.3     
  29 O29           -9.5140     4.8346    -0.0675 O.2     
  30 C30          -10.4891     1.0655    -0.5091 C.ar    
  31 C31          -10.6780     3.0143     0.9027 C.ar    
  32 C32          -12.0461     2.8428     0.9455 C.ar    
  33 C33          -12.6364     1.7916     0.2649 C.ar    
  34 C34          -11.8582     0.9042    -0.4588 C.ar    
  35 Br35         -14.5124     1.5632     0.3293 Br      
  36 O36           -5.9176    -0.8869     0.1890 O.2     
  37 C37            1.2592     1.8116    -0.1432 C.3     
  38 H38            0.8240    -0.8474    -0.0142 H       
  39 H39           -1.3169    -2.0380     0.1034 H       
  40 H40           -1.2045     2.9013    -0.1111 H       
  41 H41           -3.7059    -1.8833     0.1674 H       
  42 H42           -4.5725     3.6425     1.8977 H       
  43 H43           -4.5651     6.0990     1.7794 H       
  44 H44           -3.7198     7.2361    -0.2317 H       
  45 H45           -2.8773     5.9255    -2.1355 H       
  46 H46           -2.8680     3.4682    -2.0352 H       
  47 H47           -7.6889     0.2521     0.1886 H       
  48 H48           -6.8769     5.9538     1.0014 H       
  49 H49           -6.7580     5.9542    -0.7746 H       
  50 H50           -8.8951     7.2036    -0.9174 H       
  51 H51           -9.0140     7.2031     0.8586 H       
  52 H52           -7.4213    10.4121     0.0742 H       
  53 H53           -9.8831     0.3726    -1.0739 H       
  54 H54          -10.2185     3.8342     1.4346 H       
  55 H55          -12.6579     3.5297     1.5115 H       
  56 H56          -12.3243     0.0863    -0.9881 H       
  57 H57            1.5479     1.9388    -1.1866 H       
  58 H58            1.1709     2.7890     0.3311 H       
  59 H59            2.0172     1.2237     0.3744 H       
@<TRIPOS>BOND
   1    1    2 ar
   2    1   37 1
   3    1    6 ar
   4    2    3 ar
   5    2   38 1
   6    3    4 ar
   7    3   39 1
   8    4    5 ar
   9    4    7 1
  10    5    6 ar
  11    5   10 1
  12    6   40 1
  13    7    8 am
  14    7   41 1
  15    8    9 1
  16    8   36 2
  17    9   10 2
  18    9   17 1
  19   10   11 1
  20   11   12 ar
  21   11   16 ar
  22   12   13 ar
  23   12   42 1
  24   13   14 ar
  25   13   43 1
  26   14   15 ar
  27   14   44 1
  28   15   16 ar
  29   15   45 1
  30   16   46 1
  31   17   18 1
  32   17   21 2
  33   18   19 2
  34   18   47 1
  35   19   20 1
  36   19   22 1
  37   20   21 1
  38   20   23 am
  39   22   30 ar
  40   22   31 ar
  41   23   24 1
  42   23   29 2
  43   24   25 1
  44   24   48 1
  45   24   49 1
  46   25   26 1
  47   25   50 1
  48   25   51 1
  49   26   27 2
  50   26   28 1
  51   28   52 1
  52   30   34 ar
  53   30   53 1
  54   31   32 ar
  55   31   54 1
  56   32   33 ar
  57   32   55 1
  58   33   34 ar
  59   33   35 1
  60   34   56 1
  61   37   57 1
  62   37   58 1
  63   37   59 1

#	End of record

