#	Name: ASD00260002
#	Creating user name:	WinNT
#	Creation time:	15. 06. 2019 18:33

#	Modifying user name:	WinNT
#	Modification time:	15. 06. 2019 18:33

#	Program:	/corina/corina34_cracker 3.40 0067  02.08.2006

@<TRIPOS>MOLECULE
ASD00260002
  33   35    0    0    0
SMALL
NO_CHARGES


@<TRIPOS>ATOM
   1 C1            -0.0163     1.3536     0.0095 C.2     
   2 C2             0.0021    -0.0041     0.0020 C.2     
   3 C3             1.3136    -0.6810    -0.0341 C.2     
   4 C4             2.4691     0.1757    -0.3506 C.ar    
   5 C5             3.7176    -0.3719    -0.6698 C.ar    
   6 C6             4.7713     0.4700    -0.9740 C.ar    
   7 C7             4.5878     1.8488    -0.9590 C.ar    
   8 C8             3.3565     2.3966    -0.6378 C.ar    
   9 C9             2.2855     1.5699    -0.3263 C.ar    
  10 O10            1.0906     2.0967     0.0029 O.3     
  11 C11           -1.2590    -0.7845     0.0299 C.ar    
  12 C12           -2.1485    -0.7128    -1.0409 C.ar    
  13 C13           -3.3201    -1.4401    -1.0123 C.ar    
  14 C14           -3.6138    -2.2428     0.0814 C.ar    
  15 C15           -2.7303    -2.3160     1.1495 C.ar    
  16 C16           -1.5544    -1.5956     1.1243 C.ar    
  17 O17            5.6274     2.6671    -1.2622 O.3     
  18 C18            6.8718     2.0429    -1.5846 C.3     
  19 O19            3.8921    -1.7176    -0.6801 O.3     
  20 O20            1.4327    -1.8745     0.1847 O.2     
  21 O21           -4.7691    -2.9582     0.1067 O.3     
  22 H22           -0.9728     1.8552     0.0167 H       
  23 H23            5.7376     0.0569    -1.2230 H       
  24 H24            3.2296     3.4691    -0.6296 H       
  25 H25           -1.9207    -0.0881    -1.8920 H       
  26 H26           -4.0099    -1.3847    -1.8415 H       
  27 H27           -2.9620    -2.9409     1.9994 H       
  28 H28           -0.8653    -1.6564     1.9537 H       
  29 H29            7.2078     1.4438    -0.7382 H       
  30 H30            6.7411     1.4004    -2.4554 H       
  31 H31            7.6156     2.8082    -1.8061 H       
  32 H32            3.7145    -2.1307    -1.5362 H       
  33 H33           -4.6916    -3.8440    -0.2735 H       
@<TRIPOS>BOND
   1    1    2 2
   2    1   10 1
   3    1   22 1
   4    2    3 1
   5    2   11 1
   6    3    4 1
   7    3   20 2
   8    4    5 ar
   9    4    9 ar
  10    5    6 ar
  11    5   19 1
  12    6    7 ar
  13    6   23 1
  14    7    8 ar
  15    7   17 1
  16    8    9 ar
  17    8   24 1
  18    9   10 1
  19   11   12 ar
  20   11   16 ar
  21   12   13 ar
  22   12   25 1
  23   13   14 ar
  24   13   26 1
  25   14   15 ar
  26   14   21 1
  27   15   16 ar
  28   15   27 1
  29   16   28 1
  30   17   18 1
  31   18   29 1
  32   18   30 1
  33   18   31 1
  34   19   32 1
  35   21   33 1

#	End of record

