#	Name: ASD01028053
#	Creating user name:	WinNT
#	Creation time:	15. 06. 2019 18:56

#	Modifying user name:	WinNT
#	Modification time:	15. 06. 2019 18:56

#	Program:	/corina/corina34_cracker 3.40 0067  02.08.2006

@<TRIPOS>MOLECULE
ASD01028053
  84   89    0    0    0
SMALL
NO_CHARGES


@<TRIPOS>ATOM
   1 C1            -1.9494     2.4108    -0.4365 C.3     
   2 C2            -1.7259     0.9008    -0.5250 C.3     
   3 C3            -2.9732     0.1686    -0.0267 C.3     
   4 C4             0.2776     2.9371     0.5677 C.3     
   5 C5            -0.6326     3.1621    -0.6362 C.3     
   6 N6             0.6161     4.2418     1.1959 N.3     
   7 N7            -1.0301     2.6198     3.8701 N.pl3   
   8 C8            -0.3729     3.7540     4.3861 C.ar    
   9 C9            -0.1237     4.7922     3.4862 C.ar    
  10 C10           -0.5247     4.6526     2.0453 C.3     
  11 C11            0.0556     3.8573     5.6993 C.ar    
  12 C12            0.6562     5.0332     6.1364 C.ar    
  13 C13            0.8491     6.0846     5.2504 C.ar    
  14 C14            0.4665     5.9593     3.9309 C.ar    
  15 O15           -2.6102    -0.9356     0.8027 O.3     
  16 C16           -2.7143    -0.7664     2.1466 C.ar    
  17 C17           -2.1430     0.3440     2.7077 C.ar    
  18 C18           -2.2378     0.5547     4.0859 C.ar    
  19 C19           -1.6691     1.7064     4.7019 C.ar    
  20 N20           -1.8030     1.8386     6.0031 N.ar    
  21 O21            0.0353     2.9729     6.7348 O.3     
  22 C22            0.4958     3.6553     7.9044 C.3     
  23 O23            0.9690     4.9282     7.4570 O.3     
  24 C24           -3.3861    -1.7014     2.9441 C.ar    
  25 C25           -3.4868    -1.5173     4.3079 C.ar    
  26 C26           -2.9151    -0.3839     4.8999 C.ar    
  27 N27           -2.9846    -0.1478     6.2194 N.ar    
  28 C28           -2.4415     0.9317     6.7312 C.ar    
  29 O29           -3.9450    -2.7983     2.3697 O.3     
  30 C30           -4.6162    -3.7142     3.2373 C.3     
  31 C31            1.8016     4.0005     2.0617 C.3     
  32 C32           -5.1766    -4.8772     2.4162 C.3     
  33 C33           -5.8952    -5.8577     3.3452 C.3     
  34 N34           -6.4332    -6.9744     2.5568 N.3     
  35 C35           -6.9207    -8.0499     3.4316 C.3     
  36 C36           -7.5438    -9.1561     2.5768 C.3     
  37 N37           -6.5406    -9.6645     1.6309 N.3     
  38 C38           -6.0531    -8.5889     0.7562 C.3     
  39 C39           -5.4300    -7.4828     1.6109 C.3     
  40 C40           -7.0786   -10.7811     0.8425 C.3     
  41 C41           -6.0437   -11.2171    -0.1966 C.3     
  42 O42           -4.8725   -11.6941     0.4687 O.3     
  43 H43           -2.6565     2.7185    -1.2078 H       
  44 H44           -2.3573     2.6591     0.5436 H       
  45 H45           -1.5319     0.6214    -1.5614 H       
  46 H46           -0.8718     0.6180     0.0898 H       
  47 H47           -3.5981     0.8572     0.5407 H       
  48 H48           -3.5373    -0.2015    -0.8849 H       
  49 H49           -0.2166     2.3120     1.3022 H       
  50 H50            1.2053     2.4681     0.2441 H       
  51 H51           -0.1417     2.7998    -1.5404 H       
  52 H52           -0.8376     4.2280    -0.7434 H       
  53 H53           -1.0352     2.4696     2.9066 H       
  54 H54           -0.8821     5.6205     1.6795 H       
  55 H55           -1.3251     3.9258     1.9410 H       
  56 H56            1.3007     7.0029     5.5962 H       
  57 H57            0.6264     6.7756     3.2413 H       
  58 H58           -1.6210     1.0484     2.0780 H       
  59 H59           -0.3238     3.7886     8.6105 H       
  60 H60            1.3056     3.0946     8.3706 H       
  61 H61           -4.0037    -2.2451     4.9161 H       
  62 H62           -2.5195     1.0882     7.7969 H       
  63 H63           -3.9122    -4.0970     3.9762 H       
  64 H64           -5.4329    -3.2013     3.7453 H       
  65 H65            2.6285     3.6361     1.4522 H       
  66 H66            2.0918     4.9317     2.5482 H       
  67 H67            1.5532     3.2570     2.8190 H       
  68 H68           -5.8806    -4.4943     1.6774 H       
  69 H69           -4.3599    -5.3901     1.9083 H       
  70 H70           -5.1912    -6.2406     4.0840 H       
  71 H71           -6.7119    -5.3449     3.8532 H       
  72 H72           -6.0881    -8.4583     4.0043 H       
  73 H73           -7.6713    -7.6514     4.1142 H       
  74 H74           -7.8800    -9.9681     3.2216 H       
  75 H75           -8.3933    -8.7541     2.0248 H       
  76 H76           -5.3025    -8.9874     0.0736 H       
  77 H77           -6.8857    -8.1805     0.1834 H       
  78 H78           -5.0938    -6.6708     0.9661 H       
  79 H79           -4.5805    -7.8847     2.1630 H       
  80 H80           -7.3039   -11.6176     1.5041 H       
  81 H81           -7.9899   -10.4626     0.3363 H       
  82 H82           -6.4610   -12.0132    -0.8132 H       
  83 H83           -5.7825   -10.3676    -0.8278 H       
  84 H84           -4.1723   -11.9881    -0.1300 H       
@<TRIPOS>BOND
   1    1    2 1
   2    1    5 1
   3    1   43 1
   4    1   44 1
   5    2    3 1
   6    2   45 1
   7    2   46 1
   8    3   15 1
   9    3   47 1
  10    3   48 1
  11    4    5 1
  12    4    6 1
  13    4   49 1
  14    4   50 1
  15    5   51 1
  16    5   52 1
  17    6   31 1
  18    6   10 1
  19    7    8 1
  20    7   19 1
  21    7   53 1
  22    8    9 ar
  23    8   11 ar
  24    9   10 1
  25    9   14 ar
  26   10   54 1
  27   10   55 1
  28   11   12 ar
  29   11   21 1
  30   12   13 ar
  31   12   23 1
  32   13   14 ar
  33   13   56 1
  34   14   57 1
  35   15   16 1
  36   16   17 ar
  37   16   24 ar
  38   17   18 ar
  39   17   58 1
  40   18   19 ar
  41   18   26 ar
  42   19   20 ar
  43   20   28 ar
  44   21   22 1
  45   22   23 1
  46   22   59 1
  47   22   60 1
  48   24   25 ar
  49   24   29 1
  50   25   26 ar
  51   25   61 1
  52   26   27 ar
  53   27   28 ar
  54   28   62 1
  55   29   30 1
  56   30   32 1
  57   30   63 1
  58   30   64 1
  59   31   65 1
  60   31   66 1
  61   31   67 1
  62   32   33 1
  63   32   68 1
  64   32   69 1
  65   33   34 1
  66   33   70 1
  67   33   71 1
  68   34   35 1
  69   34   39 1
  70   35   36 1
  71   35   72 1
  72   35   73 1
  73   36   37 1
  74   36   74 1
  75   36   75 1
  76   37   38 1
  77   37   40 1
  78   38   39 1
  79   38   76 1
  80   38   77 1
  81   39   78 1
  82   39   79 1
  83   40   41 1
  84   40   80 1
  85   40   81 1
  86   41   42 1
  87   41   82 1
  88   41   83 1
  89   42   84 1

#	End of record

