#	Name: ASD07301391
#	Creating user name:	WinNT
#	Creation time:	15. 06. 2019 21:11

#	Modifying user name:	WinNT
#	Modification time:	15. 06. 2019 21:11

#	Program:	/corina/corina34_cracker 3.40 0067  02.08.2006

@<TRIPOS>MOLECULE
ASD07301391
  33   34    0    0    0
SMALL
NO_CHARGES


@<TRIPOS>ATOM
   1 C1            -0.0169     1.4657     0.0593 C.2     
   2 C2             0.0021    -0.0041     0.0011 C.2     
   3 C3             1.2766    -0.6355    -0.0642 C.2     
   4 C4             2.3777     0.1600    -0.0681 C.2     
   5 N5             2.2593     1.5104    -0.0114 N.pl3   
   6 N6             1.1317     2.1169     0.0483 N.2     
   7 O7            -1.0311    -0.6549     0.0089 O.2     
   8 C8             3.4272     2.2799    -0.0179 C.ar    
   9 C9             3.3488     3.6638    -0.1145 C.ar    
  10 C10            4.5037     4.4204    -0.1202 C.ar    
  11 C11            5.7378     3.8022    -0.0304 C.ar    
  12 C12            5.8195     2.4252     0.0654 C.ar    
  13 C13            4.6679     1.6628     0.0779 C.ar    
  14 C14            4.4196     5.9214    -0.2250 C.3     
  15 F15            4.3419     6.4748     1.0576 F       
  16 F16            5.5591     6.4081    -0.8745 F       
  17 F17            3.2799     6.2748    -0.9552 F       
  18 O18            1.3878    -1.9892    -0.1204 O.3     
  19 C19            2.7092    -2.5295    -0.1837 C.3     
  20 C20           -1.2898     2.1954     0.1224 C.2     
  21 O21           -2.3386     1.5861     0.1268 O.2     
  22 C22           -1.2930     3.7013     0.1816 C.3     
  23 H23            3.3592    -0.2880    -0.1166 H       
  24 H24            2.3855     4.1471    -0.1855 H       
  25 H25            6.6396     4.3964    -0.0354 H       
  26 H26            6.7847     1.9457     0.1351 H       
  27 H27            4.7322     0.5876     0.1573 H       
  28 H28            2.6553    -3.6175    -0.2243 H       
  29 H29            3.2116    -2.1571    -1.0764 H       
  30 H30            3.2685    -2.2262     0.7013 H       
  31 H31           -0.8042     4.1009    -0.7069 H       
  32 H32           -2.3211     4.0611     0.2235 H       
  33 H33           -0.7561     4.0310     1.0710 H       
@<TRIPOS>BOND
   1    1    2 1
   2    1    6 2
   3    1   20 1
   4    2    3 1
   5    2    7 2
   6    3    4 2
   7    3   18 1
   8    4    5 1
   9    4   23 1
  10    5    6 1
  11    5    8 1
  12    8    9 ar
  13    8   13 ar
  14    9   10 ar
  15    9   24 1
  16   10   11 ar
  17   10   14 1
  18   11   12 ar
  19   11   25 1
  20   12   13 ar
  21   12   26 1
  22   13   27 1
  23   14   15 1
  24   14   16 1
  25   14   17 1
  26   18   19 1
  27   19   28 1
  28   19   29 1
  29   19   30 1
  30   20   21 2
  31   20   22 1
  32   22   31 1
  33   22   32 1
  34   22   33 1

#	End of record

