#	Name: ASD08070315
#	Creating user name:	WinNT
#	Creation time:	15. 06. 2019 21:14

#	Modifying user name:	WinNT
#	Modification time:	15. 06. 2019 21:14

#	Program:	/corina/corina34_cracker 3.40 0067  02.08.2006

@<TRIPOS>MOLECULE
ASD08070315
  22   22    0    0    0
SMALL
NO_CHARGES


@<TRIPOS>ATOM
   1 N1            -0.0178     1.4648     0.0101 N.3     
   2 C2             0.0021    -0.0041     0.0020 C.3     
   3 C3             0.8260    -0.5095     1.1880 C.3     
   4 C4             0.8464    -2.0163     1.1798 C.ar    
   5 C5             2.0572    -2.6831     1.1866 C.ar    
   6 C6             2.0649    -4.0694     1.1793 C.ar    
   7 C7             0.8491    -4.7361     1.1654 C.ar    
   8 C8            -0.3215    -4.0019     1.1593 C.ar    
   9 N9            -0.2909    -2.6834     1.1716 N.ar    
  10 C10            3.3638    -4.8336     1.1858 C.3     
  11 H11            0.9191     1.8392     0.0032 H       
  12 H12           -0.5563     1.8234    -0.7642 H       
  13 H13           -1.0174    -0.3817     0.0806 H       
  14 H14            0.4494    -0.3563    -0.9275 H       
  15 H15            1.8454    -0.1318     1.1095 H       
  16 H16            0.3787    -0.1573     2.1176 H       
  17 H17            2.9854    -2.1312     1.1970 H       
  18 H18            0.8175    -5.8156     1.1591 H       
  19 H19           -1.2725    -4.5136     1.1485 H       
  20 H20            3.6685    -5.0233     2.2150 H       
  21 H21            3.2298    -5.7822     0.6659 H       
  22 H22            4.1324    -4.2481     0.6813 H       
@<TRIPOS>BOND
   1    1    2 1
   2    1   11 1
   3    1   12 1
   4    2    3 1
   5    2   13 1
   6    2   14 1
   7    3    4 1
   8    3   15 1
   9    3   16 1
  10    4    5 ar
  11    4    9 ar
  12    5    6 ar
  13    5   17 1
  14    6    7 ar
  15    6   10 1
  16    7    8 ar
  17    7   18 1
  18    8    9 ar
  19    8   19 1
  20   10   20 1
  21   10   21 1
  22   10   22 1

#	End of record

