#	Name: ASD05740011
#	Creating user name:	WinNT
#	Creation time:	15. 06. 2019 21:02

#	Modifying user name:	WinNT
#	Modification time:	15. 06. 2019 21:02

#	Program:	/corina/corina34_cracker 3.40 0067  02.08.2006

@<TRIPOS>MOLECULE
ASD05740011
  53   56    0    0    0
SMALL
NO_CHARGES


@<TRIPOS>ATOM
   1 C1             0.2037     1.3248     0.6977 C.ar    
   2 C2             1.1329     3.4032    -0.0827 C.ar    
   3 C3            -0.1028     4.0472    -0.1592 C.ar    
   4 C4            -0.1688     5.4071    -0.2418 C.ar    
   5 C5             1.0103     6.1621    -0.2498 C.ar    
   6 C6             2.2601     5.5189    -0.1728 C.ar    
   7 C7             2.3103     4.1366    -0.0841 C.ar    
   8 C8             0.9688     7.6228    -0.3381 C.2     
   9 C9             2.1472     8.2995    -0.3419 C.2     
  10 C10            3.3631     7.5909    -0.2620 C.2     
  11 O11            3.3946     6.2513    -0.1816 O.3     
  12 C12            2.1541     9.8038    -0.4318 C.3     
  13 C13            2.2361    10.3895     0.9543 C.ar    
  14 C14            3.4664    10.6560     1.5409 C.ar    
  15 O15            4.4121     8.2098    -0.2667 O.2     
  16 C16            1.0878    10.6790     1.6687 C.ar    
  17 C17            1.2035    11.2190     2.9458 C.ar    
  18 N18            2.3953    11.4536     3.4726 N.ar    
  19 C19            3.5075    11.1925     2.8119 C.ar    
  20 N20            1.1842     2.0134     0.0016 N.pl3   
  21 N21            0.0577    11.5152     3.6748 N.am    
  22 S22            0.1869    12.1581     5.1954 S.o2    
  23 O23           -1.1581    12.3006     5.6311 O.2     
  24 O24            1.0867    11.2881     5.8684 O.2     
  25 C25           -0.3450     8.3560    -0.4230 C.3     
  26 N26            0.2037     0.0002     0.6747 N.ar    
  27 C27           -0.7180    -0.6874     1.3283 C.ar    
  28 C28           -1.6906    -0.0054     2.0425 C.ar    
  29 C29           -1.6611     1.3805     2.0453 C.ar    
  30 N30           -0.7083     2.0068     1.3748 N.ar    
  31 C31            0.9478    13.7843     4.9362 C.3     
  32 C32            1.1220    14.4865     6.2843 C.3     
  33 H33           -1.0126     3.4652    -0.1535 H       
  34 H34           -1.1279     5.9000    -0.3011 H       
  35 H35            3.2632     3.6317    -0.0246 H       
  36 H36            3.0154    10.1290    -1.0152 H       
  37 H37            1.2383    10.1431    -0.9160 H       
  38 H38            4.3819    10.4453     1.0079 H       
  39 H39            0.1145    10.4888     1.2409 H       
  40 H40            4.4622    11.3970     3.2736 H       
  41 H41            1.9062     1.5278    -0.4271 H       
  42 H42           -0.8176    11.3453     3.2928 H       
  43 H43           -1.1641     7.6370    -0.4059 H       
  44 H44           -0.4385     9.0335     0.4257 H       
  45 H45           -0.3828     8.9277    -1.3502 H       
  46 H46           -0.7130    -1.7672     1.3055 H       
  47 H47           -2.4550    -0.5420     2.5848 H       
  48 H48           -2.4044     1.9419     2.5918 H       
  49 H49            1.9218    13.6585     4.4635 H       
  50 H50            0.3067    14.3869     4.2928 H       
  51 H51            0.1480    14.6123     6.7570 H       
  52 H52            1.7631    13.8839     6.9277 H       
  53 H53            1.5792    15.4637     6.1285 H       
@<TRIPOS>BOND
   1    1   26 ar
   2    1   20 1
   3    1   30 ar
   4    2    3 ar
   5    2   20 1
   6    2    7 ar
   7    3    4 ar
   8    3   33 1
   9    4    5 ar
  10    4   34 1
  11    5    6 ar
  12    5    8 1
  13    6    7 ar
  14    6   11 1
  15    7   35 1
  16    8    9 2
  17    8   25 1
  18    9   10 1
  19    9   12 1
  20   10   11 1
  21   10   15 2
  22   12   13 1
  23   12   36 1
  24   12   37 1
  25   13   14 ar
  26   13   16 ar
  27   14   19 ar
  28   14   38 1
  29   16   17 ar
  30   16   39 1
  31   17   18 ar
  32   17   21 1
  33   18   19 ar
  34   19   40 1
  35   20   41 1
  36   21   22 am
  37   21   42 1
  38   22   23 2
  39   22   24 2
  40   22   31 1
  41   25   43 1
  42   25   44 1
  43   25   45 1
  44   26   27 ar
  45   27   28 ar
  46   27   46 1
  47   28   29 ar
  48   28   47 1
  49   29   30 ar
  50   29   48 1
  51   31   32 1
  52   31   49 1
  53   31   50 1
  54   32   51 1
  55   32   52 1
  56   32   53 1

#	End of record

