#	Name: ASD01820164
#	Creating user name:	WinNT
#	Creation time:	15. 06. 2019 19:36

#	Modifying user name:	WinNT
#	Modification time:	15. 06. 2019 19:36

#	Program:	/corina/corina34_cracker 3.40 0067  02.08.2006

@<TRIPOS>MOLECULE
ASD01820164
  87   90    0    0    0
SMALL
NO_CHARGES


@<TRIPOS>ATOM
   1 C1            -0.0170     1.4053     0.0098 C.ar    
   2 C2             0.0021    -0.0041     0.0020 C.ar    
   3 C3            -1.4140    -0.4278     0.0138 C.2     
   4 N4            -2.1901     0.6709     0.0273 N.am    
   5 C5            -1.4440     1.7903     0.0314 C.2     
   6 C6            -3.6549     0.6509     0.0410 C.3     
   7 C7            -4.1512     0.6364     1.4882 C.3     
   8 C8            -5.6810     0.6156     1.5025 C.3     
   9 N9            -6.1576     0.6016     2.8920 N.4     
  10 C10           -7.6264     0.5816     2.9057 C.3     
  11 C11           -8.1228     0.5671     4.3528 C.3     
  12 C12           -9.6526     0.5463     4.3671 C.3     
  13 C13          -10.1489     0.5317     5.8143 C.3     
  14 C14          -11.6787     0.5109     5.8286 C.3     
  15 C15          -12.1751     0.4964     7.2758 C.3     
  16 N16          -13.6439     0.4764     7.2895 N.4     
  17 C17          -14.1204     0.4624     8.6790 C.3     
  18 C18          -15.6502     0.4416     8.6933 C.3     
  19 N19          -17.6114     0.4071    10.1541 N.am    
  20 O20           -1.8714     2.9270     0.0434 O.2     
  21 O21           -1.8104    -1.5758     0.0109 O.2     
  22 C22          -16.1466     0.4270    10.1404 C.3     
  23 C23          -18.3573    -0.7124    10.1552 C.2     
  24 C24          -19.7844    -0.3274    10.1707 C.ar    
  25 C25          -19.8035     1.0823    10.1783 C.ar    
  26 C26          -18.3873     1.5058    10.1730 C.2     
  27 C27          -20.9767    -1.0326    10.1786 C.ar    
  28 C28          -22.1813    -0.3461    10.1939 C.ar    
  29 C29          -22.2000     1.0356    10.2014 C.ar    
  30 C30          -21.0145     1.7547    10.1932 C.ar    
  31 O31          -17.9298    -1.8490    10.1449 O.2     
  32 O32          -17.9908     2.6537    10.1770 O.2     
  33 C33          -14.1562     1.6727     6.6081 C.3     
  34 C34          -14.1237    -0.7259     6.5951 C.3     
  35 C35           -5.6452    -0.5947     3.5734 C.3     
  36 C36           -5.6777     1.8039     3.5863 C.3     
  37 C37            1.1756     2.1106     0.0022 C.ar    
  38 C38            2.3798     1.4243    -0.0130 C.ar    
  39 C39            2.3985     0.0422    -0.0211 C.ar    
  40 C40            1.2134    -0.6767    -0.0136 C.ar    
  41 C41            3.6776     2.1903    -0.0213 C.3     
  42 F42            4.0918     2.4202     1.2951 F       
  43 F43            4.6534     1.4472    -0.6941 F       
  44 F44            3.4923     3.4146    -0.6725 F       
  45 H45           -4.0351     1.5386    -0.4646 H       
  46 H46           -4.0109    -0.2412    -0.4742 H       
  47 H47           -3.7711    -0.2512     1.9938 H       
  48 H48           -3.7952     1.5285     2.0034 H       
  49 H49           -6.0612     1.5032     0.9969 H       
  50 H50           -6.0371    -0.2765     0.9873 H       
  51 H51           -8.0066     1.4693     2.4001 H       
  52 H52           -7.9825    -0.3105     2.3905 H       
  53 H53           -7.7426    -0.3206     4.8584 H       
  54 H54           -7.7667     1.4592     4.8681 H       
  55 H55          -10.0327     1.4339     3.8615 H       
  56 H56          -10.0086    -0.3459     3.8519 H       
  57 H57           -9.7687    -0.3559     6.3199 H       
  58 H58           -9.7929     1.4238     6.3295 H       
  59 H59          -12.0589     1.3986     5.3230 H       
  60 H60          -12.0348    -0.3812     5.3134 H       
  61 H61          -11.7949    -0.3913     7.7814 H       
  62 H62          -11.8190     1.3885     7.7910 H       
  63 H63          -13.7402    -0.4252     9.1846 H       
  64 H64          -13.7644     1.3545     9.1942 H       
  65 H65          -16.0304     1.3292     8.1877 H       
  66 H66          -16.0063    -0.4505     8.1780 H       
  67 H67          -15.7664    -0.4606    10.6460 H       
  68 H68          -15.7905     1.3192    10.6556 H       
  69 H69          -20.9681    -2.1126    10.1724 H       
  70 H70          -23.1113    -0.8950    10.1997 H       
  71 H71          -23.1446     1.5591    10.2133 H       
  72 H72          -21.0352     2.8345    10.1991 H       
  73 H73          -13.8026     1.6830     5.5771 H       
  74 H74          -15.2461     1.6578     6.6183 H       
  75 H75          -13.8002     2.5648     7.1233 H       
  76 H76          -13.7435    -1.6136     7.1007 H       
  77 H77          -15.2136    -0.7408     6.6053 H       
  78 H78          -13.7701    -0.7156     5.5641 H       
  79 H79           -4.5554    -0.5798     3.5632 H       
  80 H80           -5.9988    -0.6050     4.6044 H       
  81 H81           -6.0013    -1.4868     3.0581 H       
  82 H82           -6.0579     2.6916     3.0807 H       
  83 H83           -6.0314     1.7936     4.6173 H       
  84 H84           -4.5879     1.8188     3.5761 H       
  85 H85            1.1670     3.1906     0.0077 H       
  86 H86            3.3432    -0.4812    -0.0333 H       
  87 H87            1.2341    -1.7565    -0.0195 H       
@<TRIPOS>BOND
   1    1    2 ar
   2    1   37 ar
   3    1    5 1
   4    2    3 1
   5    2   40 ar
   6    3    4 am
   7    3   21 2
   8    4    5 am
   9    4    6 1
  10    5   20 2
  11    6    7 1
  12    6   45 1
  13    6   46 1
  14    7    8 1
  15    7   47 1
  16    7   48 1
  17    8    9 1
  18    8   49 1
  19    8   50 1
  20    9   10 1
  21    9   35 1
  22    9   36 1
  23   10   11 1
  24   10   51 1
  25   10   52 1
  26   11   12 1
  27   11   53 1
  28   11   54 1
  29   12   13 1
  30   12   55 1
  31   12   56 1
  32   13   14 1
  33   13   57 1
  34   13   58 1
  35   14   15 1
  36   14   59 1
  37   14   60 1
  38   15   16 1
  39   15   61 1
  40   15   62 1
  41   16   17 1
  42   16   33 1
  43   16   34 1
  44   17   18 1
  45   17   63 1
  46   17   64 1
  47   18   22 1
  48   18   65 1
  49   18   66 1
  50   19   23 am
  51   19   22 1
  52   19   26 am
  53   22   67 1
  54   22   68 1
  55   23   24 1
  56   23   31 2
  57   24   25 ar
  58   24   27 ar
  59   25   26 1
  60   25   30 ar
  61   26   32 2
  62   27   28 ar
  63   27   69 1
  64   28   29 ar
  65   28   70 1
  66   29   30 ar
  67   29   71 1
  68   30   72 1
  69   33   73 1
  70   33   74 1
  71   33   75 1
  72   34   76 1
  73   34   77 1
  74   34   78 1
  75   35   79 1
  76   35   80 1
  77   35   81 1
  78   36   82 1
  79   36   83 1
  80   36   84 1
  81   37   38 ar
  82   37   85 1
  83   38   39 ar
  84   38   41 1
  85   39   40 ar
  86   39   86 1
  87   40   87 1
  88   41   42 1
  89   41   43 1
  90   41   44 1

#	End of record

