#	Name: ASD03540400
#	Creating user name:	WinNT
#	Creation time:	15. 06. 2019 20:43

#	Modifying user name:	WinNT
#	Modification time:	15. 06. 2019 20:43

#	Program:	/corina/corina34_cracker 3.40 0067  02.08.2006

@<TRIPOS>MOLECULE
ASD03540400
  49   53    0    0    0
SMALL
NO_CHARGES


@<TRIPOS>ATOM
   1 N1            -0.0161     1.3395     0.0094 N.am    
   2 C2             0.0021    -0.0041     0.0020 C.2     
   3 N3             1.1389    -0.7173    -0.0126 N.am    
   4 C4             2.3459    -0.1107    -0.0209 C.2     
   5 C5             2.3856     1.3633    -0.0133 C.ar    
   6 C6             3.5869     2.0604    -0.0206 C.ar    
   7 C7             3.5657     3.4551    -0.0124 C.ar    
   8 C8             2.3429     4.1385     0.0033 C.ar    
   9 C9             1.1618     3.4521     0.0104 C.ar    
  10 C10            1.1635     2.0628     0.0020 C.ar    
  11 C11            4.8323     4.2113    -0.0199 C.2     
  12 O12            5.8932     3.6192    -0.0332 O.2     
  13 O13            4.8127     5.5585    -0.0121 O.3     
  14 O14            3.3720    -0.7627    -0.0337 O.2     
  15 O15           -1.0577    -0.5997     0.0093 O.2     
  16 C16            1.0696    -2.1807    -0.0194 C.3     
  17 O17            1.1901    -4.0364    -5.3244 O.3     
  18 C18            2.5431    -4.5289    -5.3134 C.3     
  19 O19            3.1792    -3.7583    -4.2767 O.3     
  20 C20            2.1797    -3.4135    -3.4135 C.ar    
  21 C21            0.9564    -3.5845    -4.0578 C.ar    
  22 C22            2.2118    -2.9583    -2.1058 C.ar    
  23 C23            1.0320    -2.6753    -1.4424 C.ar    
  24 C24           -0.1816    -2.8454    -2.0814 C.ar    
  25 C25           -0.2213    -3.2990    -3.3871 C.ar    
  26 C26            6.0967     6.2365    -0.0202 C.3     
  27 C27            5.5841     9.7899     1.1566 C.ar    
  28 C28            5.7854     8.4229     1.1862 C.ar    
  29 C29            5.8775     7.7275    -0.0097 C.ar    
  30 C30            5.7636     8.4365    -1.1958 C.ar    
  31 C31            5.5635     9.8031    -1.1469 C.ar    
  32 N32            5.4804    10.4317     0.0093 N.ar    
  33 H33           -0.8657     1.8077     0.0159 H       
  34 H34            4.5268     1.5286    -0.0320 H       
  35 H35            2.3339     5.2185     0.0102 H       
  36 H36            0.2255     3.9901     0.0226 H       
  37 H37            1.9463    -2.5883     0.4839 H       
  38 H38            0.1684    -2.5041     0.5016 H       
  39 H39            2.5621    -5.5907    -5.0678 H       
  40 H40            3.0242    -4.3485    -6.2747 H       
  41 H41            3.1587    -2.8251    -1.6037 H       
  42 H42           -1.1009    -2.6232    -1.5600 H       
  43 H43           -1.1710    -3.4303    -3.8843 H       
  44 H44            6.6661     5.9468     0.8629 H       
  45 H45            6.6495     5.9569    -0.9170 H       
  46 H46            5.5067    10.3382     2.0839 H       
  47 H47            5.8698     7.9029     2.1290 H       
  48 H48            5.8308     7.9273    -2.1458 H       
  49 H49            5.4738    10.3626    -2.0663 H       
@<TRIPOS>BOND
   1    1    2 am
   2    1   10 1
   3    1   33 1
   4    2    3 am
   5    2   15 2
   6    3    4 am
   7    3   16 1
   8    4    5 1
   9    4   14 2
  10    5    6 ar
  11    5   10 ar
  12    6    7 ar
  13    6   34 1
  14    7    8 ar
  15    7   11 1
  16    8    9 ar
  17    8   35 1
  18    9   10 ar
  19    9   36 1
  20   11   12 2
  21   11   13 1
  22   13   26 1
  23   16   23 1
  24   16   37 1
  25   16   38 1
  26   17   18 1
  27   17   21 1
  28   18   19 1
  29   18   39 1
  30   18   40 1
  31   19   20 1
  32   20   21 ar
  33   20   22 ar
  34   21   25 ar
  35   22   23 ar
  36   22   41 1
  37   23   24 ar
  38   24   25 ar
  39   24   42 1
  40   25   43 1
  41   26   29 1
  42   26   44 1
  43   26   45 1
  44   27   28 ar
  45   27   32 ar
  46   27   46 1
  47   28   29 ar
  48   28   47 1
  49   29   30 ar
  50   30   31 ar
  51   30   48 1
  52   31   32 ar
  53   31   49 1

#	End of record

