#	Name: ASD01903314
#	Creating user name:	WinNT
#	Creation time:	15. 06. 2019 19:54

#	Modifying user name:	WinNT
#	Modification time:	15. 06. 2019 19:54

#	Program:	/corina/corina34_cracker 3.40 0067  02.08.2006

@<TRIPOS>MOLECULE
ASD01903314
  37   40    0    0    0
SMALL
NO_CHARGES


@<TRIPOS>ATOM
   1 N1            -0.0111     0.9658     0.0074 N.pl3   
   2 H2             0.0204    -0.0037     0.0047 H       
   3 C3             1.1669     1.6980    -0.0075 C.2     
   4 C4            -1.2379     1.6220     0.0203 C.ar    
   5 N5            -1.2743     2.9425     0.1196 N.ar    
   6 C6            -2.4200     3.6045     0.1350 C.ar    
   7 C7            -3.6296     2.9302     0.0468 C.ar    
   8 C8            -3.6290     1.5479    -0.0584 C.ar    
   9 C9            -2.4130     0.8858    -0.0770 C.ar    
  10 S10            2.7893     1.0190     0.0972 S.3     
  11 C11            3.4708     2.6362     0.0254 C.2     
  12 C12            2.4566     3.5214    -0.1207 C.2     
  13 N13            1.2461     2.9908    -0.1064 N.2     
  14 C14            4.9052     3.0444     0.1560 C.3     
  15 C15            5.5741     3.3838    -1.1857 C.3     
  16 C16            4.5839     4.2138    -2.0244 C.3     
  17 C17            3.8616     5.2489    -1.2182 C.2     
  18 C18            2.8328     4.9513    -0.3731 C.2     
  19 N19            4.0410     6.5792    -1.1655 N.pl3   
  20 N20            3.0493     7.1192    -0.3302 N.2     
  21 C21            2.3172     6.1351     0.1406 C.2     
  22 O22           -2.4120     4.9572     0.2387 O.3     
  23 C23           -1.1355     5.5936     0.3265 C.3     
  24 H24           -4.5612     3.4763     0.0603 H       
  25 H25           -4.5568     0.9996    -0.1281 H       
  26 H26           -2.3782    -0.1906    -0.1579 H       
  27 H27            4.9611     3.9188     0.8044 H       
  28 H28            5.4579     2.2304     0.6250 H       
  29 H29            6.4804     3.9626    -1.0083 H       
  30 H30            5.8228     2.4640    -1.7151 H       
  31 H31            5.1322     4.7113    -2.8243 H       
  32 H32            3.8509     3.5411    -2.4697 H       
  33 H33            4.7343     7.0793    -1.6239 H       
  34 H34            1.4708     6.2289     0.8048 H       
  35 H35           -0.6078     5.2292     1.2079 H       
  36 H36           -0.5533     5.3647    -0.5661 H       
  37 H37           -1.2719     6.6722     0.4047 H       
@<TRIPOS>BOND
   1    1    2 1
   2    1    3 1
   3    1    4 1
   4    3   10 1
   5    3   13 2
   6    4    5 ar
   7    4    9 ar
   8    5    6 ar
   9    6    7 ar
  10    6   22 1
  11    7    8 ar
  12    7   24 1
  13    8    9 ar
  14    8   25 1
  15    9   26 1
  16   10   11 1
  17   11   12 2
  18   11   14 1
  19   12   13 1
  20   12   18 1
  21   14   15 1
  22   14   27 1
  23   14   28 1
  24   15   16 1
  25   15   29 1
  26   15   30 1
  27   16   17 1
  28   16   31 1
  29   16   32 1
  30   17   18 2
  31   17   19 1
  32   18   21 1
  33   19   20 1
  34   19   33 1
  35   20   21 2
  36   21   34 1
  37   22   23 1
  38   23   35 1
  39   23   36 1
  40   23   37 1

#	End of record

