#	Name: ASD04880714
#	Creating user name:	WinNT
#	Creation time:	15. 06. 2019 20:53

#	Modifying user name:	WinNT
#	Modification time:	15. 06. 2019 20:53

#	Program:	/corina/corina34_cracker 3.40 0067  02.08.2006

@<TRIPOS>MOLECULE
ASD04880714
  87   93    0    0    0
SMALL
NO_CHARGES


@<TRIPOS>ATOM
   1 C1             1.3242     1.3725     3.2622 C.ar    
   2 C2             1.6905     0.0407     3.2629 C.ar    
   3 C3             2.4785    -0.4617     2.2439 C.ar    
   4 C4             2.9025     0.3667     1.2207 C.ar    
   5 C5             2.5396     1.6990     1.2136 C.ar    
   6 C6             1.7479     2.2071     2.2360 C.ar    
   7 N7             1.3789     3.5542     2.2319 N.3     
   8 C8             0.4712     3.8482     1.1143 C.3     
   9 C9             0.0286     5.3113     1.1914 C.3     
  10 N10            1.2121     6.1814     1.1478 N.3     
  11 C11            2.1198     5.8873     2.2654 C.3     
  12 C12            2.5624     4.4243     2.1883 C.3     
  13 C13            0.8442     7.5244     1.1437 C.ar    
  14 C14            1.1387     8.3281     2.2392 C.ar    
  15 C15            0.7771     9.6570     2.2392 C.ar    
  16 C16            0.1126    10.2016     1.1368 C.ar    
  17 C17           -0.1846     9.3958     0.0342 C.ar    
  18 C18            0.1847     8.0639     0.0359 C.ar    
  19 C19            0.4606     1.9179     4.3702 C.3     
  20 N20           -0.1067     7.2540    -1.0697 N.am    
  21 C21           -1.2239     7.4743    -1.7906 C.2     
  22 C22           -1.5745     6.5708    -2.9013 C.2     
  23 C23           -2.6641     6.6694    -3.7108 C.2     
  24 O24           -2.5977     5.6503    -4.5824 O.3     
  25 C25           -1.4921     4.9411    -4.3148 C.2     
  26 N26           -0.8665     5.4845    -3.3139 N.2     
  27 O27           -1.9430     8.4185    -1.5248 O.2     
  28 C28           -0.2751    11.6251     1.1373 C.2     
  29 C29            1.0978    10.5245     3.4290 C.3     
  30 C30            0.3604    10.2304     4.7370 C.3     
  31 C31            1.8418     9.8744     4.5972 C.3     
  32 O32            0.0388    12.3404     2.0691 O.2     
  33 N33           -0.9771    12.1327     0.1048 N.am    
  34 C34           -1.3621    13.5462     0.1053 C.3     
  35 C35           -2.1449    13.8620    -1.1708 C.3     
  36 C36           -2.5469    15.3382    -1.1703 C.3     
  37 N37           -3.2965    15.6406    -2.3922 N.am    
  38 C38           -4.7545    15.5297    -2.5181 C.3     
  39 C39           -5.0370    15.5139    -4.0367 C.3     
  40 C40           -3.8040    16.2618    -4.5946 C.3     
  41 C41           -2.7378    16.0608    -3.5403 C.2     
  42 O42           -1.5514    16.2489    -3.7074 O.2     
  43 C43           -1.0422     3.7117    -5.0612 C.3     
  44 C44           -1.9866     2.5080    -5.0741 C.3     
  45 C45           -1.7978     3.3458    -6.3403 C.3     
  46 H46            1.3614    -0.6088     4.0605 H       
  47 H47            2.7638    -1.5034     2.2470 H       
  48 H48            3.5185    -0.0288     0.4266 H       
  49 H49            2.8713     2.3454     0.4146 H       
  50 H50            0.9879     3.6739     0.1705 H       
  51 H51           -0.4031     3.2001     1.1757 H       
  52 H52           -0.6219     5.5395     0.3470 H       
  53 H53           -0.5120     5.4791     2.1230 H       
  54 H54            2.9941     6.5355     2.2040 H       
  55 H55            1.6031     6.0617     3.2092 H       
  56 H56            3.2129     4.1961     3.0327 H       
  57 H57            3.1030     4.2565     1.2567 H       
  58 H58            1.6518     7.9093     3.0923 H       
  59 H59           -0.6980     9.8139    -0.8191 H       
  60 H60            1.0891     2.2027     5.2140 H       
  61 H61           -0.0828     2.7917     4.0107 H       
  62 H62           -0.2491     1.1538     4.6874 H       
  63 H63            0.4957     6.5348    -1.3163 H       
  64 H64           -3.4357     7.4235    -3.6611 H       
  65 H65            1.3265    11.5660     3.2034 H       
  66 H66            0.1043    11.0784     5.3720 H       
  67 H67           -0.3567     9.4094     4.7368 H       
  68 H68            2.0994     8.8192     4.5052 H       
  69 H69            2.5604    10.4882     5.1403 H       
  70 H70           -1.2275    11.5621    -0.6385 H       
  71 H71           -1.9861    13.7525     0.9748 H       
  72 H72           -0.4667    14.1666     0.1452 H       
  73 H73           -1.5209    13.6557    -2.0403 H       
  74 H74           -3.0402    13.2416    -1.2107 H       
  75 H75           -3.1710    15.5446    -0.3008 H       
  76 H76           -1.6516    15.9586    -1.1304 H       
  77 H77           -5.1033    14.6042    -2.0599 H       
  78 H78           -5.2396    16.3879    -2.0531 H       
  79 H79           -5.0779    14.4926    -4.4153 H       
  80 H80           -5.9567    16.0512    -4.2680 H       
  81 H81           -3.4919    15.8276    -5.5444 H       
  82 H82           -4.0228    17.3231    -4.7129 H       
  83 H83            0.0288     3.5108    -5.0340 H       
  84 H84           -1.5369     1.5153    -5.0558 H       
  85 H85           -2.9333     2.6054    -4.5428 H       
  86 H86           -2.6202     3.9944    -6.6420 H       
  87 H87           -1.2238     2.9043    -7.1550 H       
@<TRIPOS>BOND
   1    1    2 ar
   2    1    6 ar
   3    1   19 1
   4    2    3 ar
   5    2   46 1
   6    3    4 ar
   7    3   47 1
   8    4    5 ar
   9    4   48 1
  10    5    6 ar
  11    5   49 1
  12    6    7 1
  13    7    8 1
  14    7   12 1
  15    8    9 1
  16    8   50 1
  17    8   51 1
  18    9   10 1
  19    9   52 1
  20    9   53 1
  21   10   11 1
  22   10   13 1
  23   11   12 1
  24   11   54 1
  25   11   55 1
  26   12   56 1
  27   12   57 1
  28   13   14 ar
  29   13   18 ar
  30   14   15 ar
  31   14   58 1
  32   15   16 ar
  33   15   29 1
  34   16   17 ar
  35   16   28 1
  36   17   18 ar
  37   17   59 1
  38   18   20 1
  39   19   60 1
  40   19   61 1
  41   19   62 1
  42   20   21 am
  43   20   63 1
  44   21   22 1
  45   21   27 2
  46   22   23 2
  47   22   26 1
  48   23   24 1
  49   23   64 1
  50   24   25 1
  51   25   26 2
  52   25   43 1
  53   28   32 2
  54   28   33 am
  55   29   30 1
  56   29   31 1
  57   29   65 1
  58   30   31 1
  59   30   66 1
  60   30   67 1
  61   31   68 1
  62   31   69 1
  63   33   34 1
  64   33   70 1
  65   34   35 1
  66   34   71 1
  67   34   72 1
  68   35   36 1
  69   35   73 1
  70   35   74 1
  71   36   37 1
  72   36   75 1
  73   36   76 1
  74   37   38 1
  75   37   41 am
  76   38   39 1
  77   38   77 1
  78   38   78 1
  79   39   40 1
  80   39   79 1
  81   39   80 1
  82   40   41 1
  83   40   81 1
  84   40   82 1
  85   41   42 2
  86   43   44 1
  87   43   45 1
  88   43   83 1
  89   44   45 1
  90   44   84 1
  91   44   85 1
  92   45   86 1
  93   45   87 1

#	End of record

