#	Name: ASD07300276
#	Creating user name:	WinNT
#	Creation time:	15. 06. 2019 21:09

#	Modifying user name:	WinNT
#	Modification time:	15. 06. 2019 21:09

#	Program:	/corina/corina34_cracker 3.40 0067  02.08.2006

@<TRIPOS>MOLECULE
ASD07300276
  48   52    0    0    0
SMALL
NO_CHARGES


@<TRIPOS>ATOM
   1 C1            -0.8594     0.9891    -0.1283 C.ar    
   2 C2            -1.0224    -0.3816    -0.3513 C.ar    
   3 C3             0.0626    -1.2306    -0.1920 C.ar    
   4 C4             1.2792    -0.6774     0.1867 C.ar    
   5 C5             1.3677     0.6889     0.3905 C.ar    
   6 N6             0.3182     1.4720     0.2313 N.ar    
   7 C7            -2.9738     0.6155    -0.6991 C.2     
   8 N8            -2.0990     1.5788    -0.3550 N.am    
   9 N9            -2.3522    -0.5791    -0.7107 N.am    
  10 O10           -4.1475     0.7970    -0.9637 O.2     
  11 C11           -2.3885     2.9467    -0.2430 C.ar    
  12 C12           -3.6729     3.4078    -0.4981 C.ar    
  13 C13           -3.9574     4.7544    -0.3878 C.ar    
  14 C14           -2.9598     5.6468    -0.0226 C.ar    
  15 C15           -1.6759     5.1865     0.2320 C.ar    
  16 C16           -1.3920     3.8392     0.1284 C.ar    
  17 O17           -3.2402     6.9727     0.0855 O.3     
  18 C18           -3.9164     7.3917     1.1796 C.2     
  19 N19           -4.2430     6.6357     2.1954 N.2     
  20 C20           -4.9138     7.3748     3.1175 C.ar    
  21 C21           -4.9976     8.6841     2.6147 C.ar    
  22 N22           -4.3533     8.6669     1.3895 N.pl3   
  23 C23           -5.4783     7.0782     4.3602 C.ar    
  24 C24           -6.1098     8.0689     5.0785 C.ar    
  25 C25           -6.1900     9.3595     4.5774 C.ar    
  26 C26           -5.6366     9.6692     3.3521 C.ar    
  27 C27           -4.1768     9.8056     0.4848 C.3     
  28 F28            2.3643    -1.4645     0.3547 F       
  29 C29           -2.9713    -1.8660    -1.0374 C.3     
  30 C30           -3.5344    -2.4991     0.2366 C.3     
  31 H31           -0.0358    -2.2932    -0.3576 H       
  32 H32            2.3125     1.1214     0.6850 H       
  33 H33           -4.4494     2.7133    -0.7831 H       
  34 H34           -4.9566     5.1132    -0.5862 H       
  35 H35           -0.8995     5.8816     0.5155 H       
  36 H36           -0.3939     3.4804     0.3316 H       
  37 H37           -5.4201     6.0750     4.7562 H       
  38 H38           -6.5461     7.8390     6.0393 H       
  39 H39           -6.6886    10.1273     5.1503 H       
  40 H40           -5.7022    10.6763     2.9675 H       
  41 H41           -5.0225     9.8595    -0.2008 H       
  42 H42           -4.1209    10.7261     1.0659 H       
  43 H43           -3.2556     9.6785    -0.0838 H       
  44 H44           -3.7787    -1.7097    -1.7528 H       
  45 H45           -2.2235    -2.5289    -1.4726 H       
  46 H46           -2.7270    -2.6555     0.9521 H       
  47 H47           -4.2822    -1.8362     0.6718 H       
  48 H48           -3.9950    -3.4566    -0.0064 H       
@<TRIPOS>BOND
   1    1    2 ar
   2    1    6 ar
   3    1    8 1
   4    2    3 ar
   5    2    9 1
   6    3    4 ar
   7    3   31 1
   8    4    5 ar
   9    4   28 1
  10    5    6 ar
  11    5   32 1
  12    7    8 am
  13    7    9 am
  14    7   10 2
  15    8   11 1
  16    9   29 1
  17   11   12 ar
  18   11   16 ar
  19   12   13 ar
  20   12   33 1
  21   13   14 ar
  22   13   34 1
  23   14   15 ar
  24   14   17 1
  25   15   16 ar
  26   15   35 1
  27   16   36 1
  28   17   18 1
  29   18   19 2
  30   18   22 1
  31   19   20 1
  32   20   21 ar
  33   20   23 ar
  34   21   22 1
  35   21   26 ar
  36   22   27 1
  37   23   24 ar
  38   23   37 1
  39   24   25 ar
  40   24   38 1
  41   25   26 ar
  42   25   39 1
  43   26   40 1
  44   27   41 1
  45   27   42 1
  46   27   43 1
  47   29   30 1
  48   29   44 1
  49   29   45 1
  50   30   46 1
  51   30   47 1
  52   30   48 1

#	End of record

