#	Name: ASD03540606
#	Creating user name:	WinNT
#	Creation time:	15. 06. 2019 20:43

#	Modifying user name:	WinNT
#	Modification time:	15. 06. 2019 20:43

#	Program:	/corina/corina34_cracker 3.40 0067  02.08.2006

@<TRIPOS>MOLECULE
ASD03540606
  72   76    0    0    0
SMALL
NO_CHARGES


@<TRIPOS>ATOM
   1 S1            -0.0207     1.6762     0.0113 S.o2    
   2 N2             0.0021    -0.0041     0.0020 N.am    
   3 C3             1.2387    -0.5546    -0.0127 C.2     
   4 N4             2.3901     0.0976    -0.0198 N.am    
   5 C5             2.6568     1.4537    -0.0150 C.ar    
   6 C6             1.6079     2.3816    -0.0005 C.ar    
   7 C7             3.9650     1.9318    -0.0239 C.ar    
   8 C8             4.2047     3.2871    -0.0184 C.ar    
   9 C9             3.1467     4.1998    -0.0038 C.ar    
  10 C10            1.8265     3.7244     0.0046 C.ar    
  11 C11            3.4155     5.6510     0.0025 C.2     
  12 O12            2.4909     6.4404     0.0153 O.2     
  13 N13            4.6858     6.1011    -0.0059 N.am    
  14 C14            4.9526     7.5416     0.0004 C.3     
  15 O15            1.2974    -1.7690    -0.0198 O.2     
  16 O16           -0.6091     2.0558    -1.2252 O.2     
  17 O17           -0.5853     2.0425     1.2628 O.2     
  18 C18            3.5783    -0.7592    -0.0348 C.3     
  19 C19           -1.2211    -0.8103     0.0098 C.3     
  20 C20           -1.5864    -1.1826    -1.4040 C.ar    
  21 C21           -1.0966    -2.3496    -1.9600 C.ar    
  22 C22           -1.4317    -2.6910    -3.2570 C.ar    
  23 C23           -2.2568    -1.8657    -3.9978 C.ar    
  24 C24           -2.7473    -0.6992    -3.4415 C.ar    
  25 C25           -2.4158    -0.3599    -2.1430 C.ar    
  26 C26            6.4411     7.7768    -0.0112 C.ar    
  27 C27            7.1123     7.8917    -1.2145 C.ar    
  28 C28            8.4768     8.1074    -1.2278 C.ar    
  29 C29            9.1735     8.2087    -0.0324 C.ar    
  30 C30            8.4977     8.0931     1.1736 C.ar    
  31 C31            7.1323     7.8831     1.1816 C.ar    
  32 O32           10.5159     8.4204    -0.0429 O.3     
  33 C33           11.1677     8.5142     1.2253 C.3     
  34 S34           -2.6830    -2.3003    -5.6513 S.o2    
  35 O35           -3.0316    -1.0891    -6.3074 O.2     
  36 O36           -1.6578    -3.1682    -6.1150 O.2     
  37 N37           -4.0664    -3.2077    -5.5786 N.am    
  38 C38           -5.3926    -2.5734    -5.6425 C.3     
  39 C39           -6.2223    -3.2942    -6.7111 C.3     
  40 O40           -6.2028    -4.7002    -6.4531 O.3     
  41 C41           -4.9030    -5.2908    -6.5268 C.3     
  42 C42           -4.0057    -4.6727    -5.4544 C.3     
  43 H43            4.7926     1.2379    -0.0349 H       
  44 H44            5.2222     3.6493    -0.0251 H       
  45 H45            0.9959     4.4146     0.0163 H       
  46 H46            5.4235     5.4712    -0.0160 H       
  47 H47            4.5058     7.9976    -0.8831 H       
  48 H48            4.5213     7.9871     0.8968 H       
  49 H49            3.2719    -1.8053    -0.0373 H       
  50 H50            4.1655    -0.5505    -0.9291 H       
  51 H51            4.1815    -0.5594     0.8508 H       
  52 H52           -1.0553    -1.7163     0.5928 H       
  53 H53           -2.0326    -0.2350     0.4553 H       
  54 H54           -0.4519    -2.9944    -1.3813 H       
  55 H55           -1.0484    -3.6024    -3.6916 H       
  56 H56           -3.3918    -0.0542    -4.0204 H       
  57 H57           -2.8020     0.5496    -1.7072 H       
  58 H58            6.5695     7.8124    -2.1448 H       
  59 H59            9.0007     8.1967    -2.1680 H       
  60 H60            9.0378     8.1716     2.1055 H       
  61 H61            6.6057     7.7930     2.1202 H       
  62 H62           11.0219     7.5862     1.7783 H       
  63 H63           12.2339     8.6833     1.0742 H       
  64 H64           10.7447     9.3444     1.7908 H       
  65 H65           -5.8870    -2.6581    -4.6748 H       
  66 H66           -5.2842    -1.5221    -5.9092 H       
  67 H67           -7.2500    -2.9324    -6.6794 H       
  68 H68           -5.7970    -3.0987    -7.6955 H       
  69 H69           -4.9816    -6.3655    -6.3625 H       
  70 H70           -4.4729    -5.1026    -7.5105 H       
  71 H71           -2.9794    -5.0123    -5.5941 H       
  72 H72           -4.3589    -4.9668    -4.4660 H       
@<TRIPOS>BOND
   1    1    2 am
   2    1    6 1
   3    1   16 2
   4    1   17 2
   5    2    3 am
   6    2   19 1
   7    3    4 am
   8    3   15 2
   9    4    5 1
  10    4   18 1
  11    5    6 ar
  12    5    7 ar
  13    6   10 ar
  14    7    8 ar
  15    7   43 1
  16    8    9 ar
  17    8   44 1
  18    9   10 ar
  19    9   11 1
  20   10   45 1
  21   11   12 2
  22   11   13 am
  23   13   14 1
  24   13   46 1
  25   14   26 1
  26   14   47 1
  27   14   48 1
  28   18   49 1
  29   18   50 1
  30   18   51 1
  31   19   20 1
  32   19   52 1
  33   19   53 1
  34   20   21 ar
  35   20   25 ar
  36   21   22 ar
  37   21   54 1
  38   22   23 ar
  39   22   55 1
  40   23   24 ar
  41   23   34 1
  42   24   25 ar
  43   24   56 1
  44   25   57 1
  45   26   27 ar
  46   26   31 ar
  47   27   28 ar
  48   27   58 1
  49   28   29 ar
  50   28   59 1
  51   29   30 ar
  52   29   32 1
  53   30   31 ar
  54   30   60 1
  55   31   61 1
  56   32   33 1
  57   33   62 1
  58   33   63 1
  59   33   64 1
  60   34   35 2
  61   34   36 2
  62   34   37 am
  63   37   38 1
  64   37   42 1
  65   38   39 1
  66   38   65 1
  67   38   66 1
  68   39   40 1
  69   39   67 1
  70   39   68 1
  71   40   41 1
  72   41   42 1
  73   41   69 1
  74   41   70 1
  75   42   71 1
  76   42   72 1

#	End of record

