#	Name: ASD05490053
#	Creating user name:	WinNT
#	Creation time:	15. 06. 2019 21:01

#	Modifying user name:	WinNT
#	Modification time:	15. 06. 2019 21:01

#	Program:	/corina/corina34_cracker 3.40 0067  02.08.2006

@<TRIPOS>MOLECULE
ASD05490053
  47   50    0    0    0
SMALL
NO_CHARGES


@<TRIPOS>ATOM
   1 O1            -0.0173     1.4248     0.0099 O.3     
   2 N2             2.2881     1.3273    -0.0127 N.ar    
   3 C3             3.4875     1.8990    -0.0219 C.ar    
   4 C4             1.1815     2.0563     0.0018 C.ar    
   5 N5             1.2061     3.3775     0.0082 N.ar    
   6 C6             2.3627     4.0327     0.0003 C.ar    
   7 C7             3.5625     3.3023    -0.0151 C.ar    
   8 N8             4.6373     1.1295    -0.0365 N.pl3   
   9 C9             4.0883     5.4065    -0.0090 C.2     
  10 N10            4.5774     4.2011    -0.0201 N.2     
  11 C11            0.0021    -0.0041     0.0020 C.3     
  12 C12           -1.4333    -0.5336     0.0129 C.3     
  13 C13           -1.4176    -2.0595    -0.1213 C.3     
  14 C14           -2.8519    -2.5868    -0.0304 C.3     
  15 O15           -3.4323    -2.1735     1.2084 O.3     
  16 C16           -3.5168    -0.7561     1.3691 C.3     
  17 C17           -2.1091    -0.1553     1.3344 C.3     
  18 N18            2.7251     5.3559     0.0038 N.pl3   
  19 C19            1.4131     6.8181     1.4621 C.3     
  20 C20            1.8151     6.5038     0.0187 C.3     
  21 O21            2.4708     7.6392    -0.5497 O.3     
  22 C22            1.6587     8.8136    -0.6078 C.3     
  23 C23            1.2505     9.2206     0.8104 C.3     
  24 C24            0.5104     8.0555     1.4746 C.3     
  25 H25            4.5732     0.1616    -0.0402 H       
  26 H26            5.5076     1.5579    -0.0432 H       
  27 H27            4.6748     6.3134    -0.0098 H       
  28 H28            0.5123    -0.3556    -0.8948 H       
  29 H29            0.5293    -0.3651     0.8851 H       
  30 H30           -1.9882    -0.1002    -0.8192 H       
  31 H31           -0.9882    -2.3360    -1.0842 H       
  32 H32           -0.8197    -2.4896     0.6822 H       
  33 H33           -3.4389    -2.1880    -0.8577 H       
  34 H34           -2.8430    -3.6755    -0.0823 H       
  35 H35           -4.1125    -0.3334     0.5600 H       
  36 H36           -3.9867    -0.5260     2.3253 H       
  37 H37           -1.5252    -0.5469     2.1673 H       
  38 H38           -2.1743     0.9300     1.4126 H       
  39 H39            0.8739     5.9695     1.8830 H       
  40 H40            2.3069     7.0132     2.0548 H       
  41 H41            0.9242     6.2690    -0.5638 H       
  42 H42            2.2231     9.6234    -1.0701 H       
  43 H43            0.7657     8.6092    -1.1985 H       
  44 H44            2.1409     9.4643     1.3900 H       
  45 H45            0.5949    10.0903     0.7653 H       
  46 H46           -0.4059     7.8440     0.9234 H       
  47 H47            0.2659     8.3181     2.5039 H       
@<TRIPOS>BOND
   1    1   11 1
   2    1    4 1
   3    2    3 ar
   4    2    4 ar
   5    3    8 1
   6    3    7 ar
   7    4    5 ar
   8    5    6 ar
   9    6    7 ar
  10    6   18 1
  11    7   10 1
  12    8   25 1
  13    8   26 1
  14    9   10 2
  15    9   18 1
  16    9   27 1
  17   11   12 1
  18   11   28 1
  19   11   29 1
  20   12   13 1
  21   12   17 1
  22   12   30 1
  23   13   14 1
  24   13   31 1
  25   13   32 1
  26   14   15 1
  27   14   33 1
  28   14   34 1
  29   15   16 1
  30   16   17 1
  31   16   35 1
  32   16   36 1
  33   17   37 1
  34   17   38 1
  35   18   20 1
  36   19   20 1
  37   19   24 1
  38   19   39 1
  39   19   40 1
  40   20   21 1
  41   20   41 1
  42   21   22 1
  43   22   23 1
  44   22   42 1
  45   22   43 1
  46   23   24 1
  47   23   44 1
  48   23   45 1
  49   24   46 1
  50   24   47 1

#	End of record

