#	Name: ASD09116410
#	Creating user name:	WinNT
#	Creation time:	15. 06. 2019 21:21

#	Modifying user name:	WinNT
#	Modification time:	15. 06. 2019 21:21

#	Program:	/corina/corina34_cracker 3.40 0067  02.08.2006

@<TRIPOS>MOLECULE
ASD09116410
  76   82    0    0    0
SMALL
NO_CHARGES


@<TRIPOS>ATOM
   1 N1            -0.5826     4.1596     0.3171 N.2     
   2 N2            -1.1179     5.4306     0.5814 N.pl3   
   3 C3             0.7215     4.2938     0.2790 C.2     
   4 N4             1.0348     5.5752     0.5040 N.2     
   5 C5            -0.0647     6.2743     0.6884 C.2     
   6 N6            -0.1322     7.6302     0.9463 N.pl3   
   7 C7            -2.4688     5.7591     0.7085 C.ar    
   8 N8             1.6347     3.2664     0.0425 N.pl3   
   9 C9             3.0009     3.5554    -0.0679 C.ar    
  10 C10            3.4238     4.8136    -0.4933 C.ar    
  11 C11            3.9495     2.5949     0.2501 C.ar    
  12 N12            5.2381     2.8600     0.1490 N.ar    
  13 C13            5.6754     4.0417    -0.2562 C.ar    
  14 C14            4.7824     5.0550    -0.5872 C.ar    
  15 N15           -2.8290     6.8182     1.4179 N.ar    
  16 N16           -4.0588     7.1583     1.5744 N.ar    
  17 C17           -5.0453     6.4628     1.0318 C.ar    
  18 C18           -4.7593     5.3412     0.2483 C.ar    
  19 C19           -3.4406     4.9741     0.0828 C.ar    
  20 C20           -6.4653     6.8208     1.2551 C.ar    
  21 C21           -7.3577     5.8240     1.6528 C.ar    
  22 C22           -6.8464     4.4307     1.8975 C.3     
  23 C23           -6.5971     3.6908     0.5861 C.3     
  24 C24           -5.8778     4.5911    -0.4147 C.3     
  25 C25           -6.9146     8.1237     1.0708 C.ar    
  26 C26           -8.2498     8.4203     1.2648 C.ar    
  27 C27           -9.1349     7.4253     1.6382 C.ar    
  28 C28           -8.6899     6.1289     1.8315 C.ar    
  29 N29            7.0457     4.2747    -0.3471 N.3     
  30 C30            7.7526     3.0780    -0.8209 C.3     
  31 C31            7.5871     4.7378     0.9369 C.3     
  32 C32            9.0584     5.1214     0.7631 C.3     
  33 C33            9.8430     3.9040     0.2663 C.3     
  34 C34            9.2288     3.4121    -1.0472 C.3     
  35 N35           11.2448     4.2816     0.0418 N.3     
  36 C36           11.8924     4.6836     1.3039 C.3     
  37 C37           13.1286     3.7793     1.4918 C.3     
  38 C38           13.4339     3.3003     0.0481 C.3     
  39 C39           12.0088     3.1589    -0.5426 C.3     
  40 C40            5.2887     6.3977    -1.0477 C.3     
  41 H41            0.6822     8.1538     1.0056 H       
  42 H42           -0.9940     8.0585     1.0680 H       
  43 H43            1.3237     2.3518    -0.0455 H       
  44 H44            2.7074     5.5819    -0.7440 H       
  45 H45            3.6298     1.6191     0.5847 H       
  46 H46           -3.1695     4.1071    -0.5015 H       
  47 H47           -5.9134     4.4867     2.4583 H       
  48 H48           -7.5811     3.8792     2.4841 H       
  49 H49           -5.9846     2.8105     0.7816 H       
  50 H50           -7.5517     3.3764     0.1644 H       
  51 H51           -6.5894     5.3037    -0.8317 H       
  52 H52           -5.4712     3.9791    -1.2198 H       
  53 H53           -6.2232     8.8999     0.7777 H       
  54 H54           -8.6031     9.4313     1.1250 H       
  55 H55          -10.1792     7.6613     1.7802 H       
  56 H56           -9.3866     5.3564     2.1220 H       
  57 H57            7.6694     2.2878    -0.0748 H       
  58 H58            7.3088     2.7410    -1.7577 H       
  59 H59            7.0230     5.6063     1.2769 H       
  60 H60            7.5046     3.9398     1.6748 H       
  61 H61            9.1404     5.9289     0.0355 H       
  62 H62            9.4642     5.4503     1.7198 H       
  63 H63            9.7935     3.1100     1.0114 H       
  64 H64            9.7565     2.5197    -1.3839 H       
  65 H65            9.3135     4.1926    -1.8033 H       
  66 H66           12.2017     5.7272     1.2459 H       
  67 H67           11.2016     4.5450     2.1357 H       
  68 H68           13.9659     4.3497     1.8938 H       
  69 H69           12.8925     2.9329     2.1368 H       
  70 H70           14.0103     4.0474    -0.4975 H       
  71 H71           13.9502     2.3404     0.0562 H       
  72 H72           11.5687     2.2062    -0.2478 H       
  73 H73           12.0381     3.2444    -1.6288 H       
  74 H74            5.3166     6.4213    -2.1371 H       
  75 H75            4.6235     7.1809    -0.6842 H       
  76 H76            6.2921     6.5619    -0.6548 H       
@<TRIPOS>BOND
   1    1    2 1
   2    1    3 2
   3    2    7 1
   4    2    5 1
   5    3    4 1
   6    3    8 1
   7    4    5 2
   8    5    6 1
   9    6   41 1
  10    6   42 1
  11    7   15 ar
  12    7   19 ar
  13    8    9 1
  14    8   43 1
  15    9   10 ar
  16    9   11 ar
  17   10   14 ar
  18   10   44 1
  19   11   12 ar
  20   11   45 1
  21   12   13 ar
  22   13   14 ar
  23   13   29 1
  24   14   40 1
  25   15   16 ar
  26   16   17 ar
  27   17   18 ar
  28   17   20 1
  29   18   19 ar
  30   18   24 1
  31   19   46 1
  32   20   21 ar
  33   20   25 ar
  34   21   22 1
  35   21   28 ar
  36   22   23 1
  37   22   47 1
  38   22   48 1
  39   23   24 1
  40   23   49 1
  41   23   50 1
  42   24   51 1
  43   24   52 1
  44   25   26 ar
  45   25   53 1
  46   26   27 ar
  47   26   54 1
  48   27   28 ar
  49   27   55 1
  50   28   56 1
  51   29   30 1
  52   29   31 1
  53   30   34 1
  54   30   57 1
  55   30   58 1
  56   31   32 1
  57   31   59 1
  58   31   60 1
  59   32   33 1
  60   32   61 1
  61   32   62 1
  62   33   34 1
  63   33   35 1
  64   33   63 1
  65   34   64 1
  66   34   65 1
  67   35   36 1
  68   35   39 1
  69   36   37 1
  70   36   66 1
  71   36   67 1
  72   37   38 1
  73   37   68 1
  74   37   69 1
  75   38   39 1
  76   38   70 1
  77   38   71 1
  78   39   72 1
  79   39   73 1
  80   40   74 1
  81   40   75 1
  82   40   76 1

#	End of record

