#	Name: ASD05390017
#	Creating user name:	WinNT
#	Creation time:	15. 06. 2019 20:59

#	Modifying user name:	WinNT
#	Modification time:	15. 06. 2019 20:59

#	Program:	/corina/corina34_cracker 3.40 0067  02.08.2006

@<TRIPOS>MOLECULE
ASD05390017
  22   22    0    0    0
SMALL
NO_CHARGES


@<TRIPOS>ATOM
   1 C1            -0.0167     1.3784     0.0096 C.ar    
   2 C2             0.0021    -0.0041     0.0020 C.ar    
   3 C3             1.2070    -0.6796    -0.0127 C.ar    
   4 C4             2.3989     0.0304    -0.0203 C.ar    
   5 O5             3.5855    -0.6319    -0.0353 O.3     
   6 C6             2.3774     1.4175    -0.0131 C.ar    
   7 C7             1.1698     2.0883     0.0021 C.ar    
   8 C8            -1.3326     2.1128     0.0199 C.3     
   9 C9            -1.7711     2.3535     1.4658 C.3     
  10 C10           -3.0870     3.0879     1.4760 C.2     
  11 O11           -3.6195     3.3880     0.4337 O.2     
  12 O12           -3.6675     3.4087     2.6430 O.3     
  13 H13           -0.9260    -0.5563     0.0079 H       
  14 H14            1.2211    -1.7595    -0.0179 H       
  15 H15            3.9205    -0.8188    -0.9229 H       
  16 H16            3.3039     1.9724    -0.0187 H       
  17 H17            1.1525     3.1682     0.0077 H       
  18 H18           -1.2185     3.0698    -0.4893 H       
  19 H19           -2.0860     1.5156    -0.4937 H       
  20 H20           -1.8851     1.3965     1.9750 H       
  21 H21           -1.0176     2.9508     1.9793 H       
  22 H22           -4.5110     3.8795     2.5989 H       
@<TRIPOS>BOND
   1    1    2 ar
   2    1    7 ar
   3    1    8 1
   4    2    3 ar
   5    2   13 1
   6    3    4 ar
   7    3   14 1
   8    4    5 1
   9    4    6 ar
  10    5   15 1
  11    6    7 ar
  12    6   16 1
  13    7   17 1
  14    8    9 1
  15    8   18 1
  16    8   19 1
  17    9   10 1
  18    9   20 1
  19    9   21 1
  20   10   11 2
  21   10   12 1
  22   12   22 1

#	End of record

