#	Name: ASD03730302
#	Creating user name:	WinNT
#	Creation time:	15. 06. 2019 20:44

#	Modifying user name:	WinNT
#	Modification time:	15. 06. 2019 20:44

#	Program:	/corina/corina34_cracker 3.40 0067  02.08.2006

@<TRIPOS>MOLECULE
ASD03730302
  70   75    0    0    0
SMALL
NO_CHARGES


@<TRIPOS>ATOM
   1 O1            -0.4717     1.1399     1.3393 O.3     
   2 C2            -0.4031    -0.2963     1.4145 C.3     
   3 O3             0.6737    -0.6348     0.5210 O.3     
   4 C4             1.4945     0.4565     0.5081 C.ar    
   5 C5             0.7887     1.5481     1.0089 C.ar    
   6 C6             2.8090     0.6084     0.1051 C.ar    
   7 C7             3.4341     1.8487     0.1921 C.ar    
   8 C8             2.7153     2.9348     0.6826 C.ar    
   9 C9             1.4068     2.7845     1.0922 C.ar    
  10 O10            4.7108     2.2057    -0.1285 O.3     
  11 C11            3.6385     4.1222     0.6234 C.3     
  12 C12            4.7793     3.6365    -0.2815 C.3     
  13 N13            3.0713     6.3033     1.0018 N.am    
  14 C14            2.9623     5.3409     0.0642 C.2     
  15 C15            4.1340     4.5297     1.9788 C.ar    
  16 C16            4.8301     3.8717     2.9835 C.ar    
  17 C17            5.1510     4.5465     4.1610 C.ar    
  18 C18            4.7732     5.8651     4.3185 C.ar    
  19 C19            4.0815     6.5189     3.3193 C.ar    
  20 C20            3.7542     5.8579     2.1366 C.ar    
  21 O21            2.4240     5.4399    -1.0181 O.2     
  22 C22            2.5364     7.6586     0.8487 C.3     
  23 C23            1.1021     7.7037     1.3792 C.3     
  24 C24            0.5435     9.1191     1.2193 C.3     
  25 C25           -0.8909     9.1643     1.7497 C.3     
  26 C26           -1.4495    10.5797     1.5898 C.3     
  27 C27            5.2312     2.4544     2.8053 C.ar    
  28 C28            6.1290     2.1041     1.7985 C.ar    
  29 C29            6.5004     0.7860     1.6356 C.ar    
  30 C30            5.9807    -0.1916     2.4732 C.ar    
  31 C31            5.0858     0.1542     3.4767 C.ar    
  32 C32            4.7152     1.4715     3.6481 C.ar    
  33 O33            6.3483    -1.4895     2.3104 O.3     
  34 C34            5.7755    -2.4434     3.2070 C.3     
  35 C35            6.3038    -3.8397     2.8717 C.3     
  36 C36            5.6905    -4.8611     3.8317 C.3     
  37 C37            6.2187    -6.2573     3.4965 C.3     
  38 H38           -0.1724    -0.6160     2.4307 H       
  39 H39           -1.3376    -0.7427     1.0744 H       
  40 H40            3.3539    -0.2412    -0.2792 H       
  41 H41            0.8628     3.6335     1.4790 H       
  42 H42            5.7391     4.0176     0.0673 H       
  43 H43            4.6007     3.9241    -1.3176 H       
  44 H44            5.6928     4.0400     4.9460 H       
  45 H45            5.0205     6.3884     5.2303 H       
  46 H46            3.7912     7.5503     3.4549 H       
  47 H47            3.1541     8.3587     1.4113 H       
  48 H48            2.5427     7.9347    -0.2057 H       
  49 H49            0.4844     7.0037     0.8166 H       
  50 H50            1.0958     7.4276     2.4336 H       
  51 H51            1.1611     9.8192     1.7819 H       
  52 H52            0.5498     9.3952     0.1648 H       
  53 H53           -1.5086     8.4642     1.1871 H       
  54 H54           -0.8972     8.8882     2.8042 H       
  55 H55           -1.4432    10.8558     0.5354 H       
  56 H56           -2.4714    10.6118     1.9677 H       
  57 H57           -0.8319    11.2797     2.1524 H       
  58 H58            6.5333     2.8641     1.1463 H       
  59 H59            7.1958     0.5139     0.8554 H       
  60 H60            4.6829    -0.6085     4.1266 H       
  61 H61            4.0227     1.7406     4.4319 H       
  62 H62            6.0475    -2.1883     4.2312 H       
  63 H63            4.6903    -2.4315     3.1055 H       
  64 H64            6.0318    -4.0948     1.8475 H       
  65 H65            7.3890    -3.8516     2.9732 H       
  66 H66            5.9625    -4.6059     4.8559 H       
  67 H67            4.6053    -4.8491     3.7302 H       
  68 H68            5.9468    -6.5124     2.4722 H       
  69 H69            7.3039    -6.2692     3.5980 H       
  70 H70            5.7818    -6.9849     4.1804 H       
@<TRIPOS>BOND
   1    1    2 1
   2    1    5 1
   3    2    3 1
   4    2   38 1
   5    2   39 1
   6    3    4 1
   7    4    5 ar
   8    4    6 ar
   9    5    9 ar
  10    6    7 ar
  11    6   40 1
  12    7    8 ar
  13    7   10 1
  14    8    9 ar
  15    8   11 1
  16    9   41 1
  17   10   12 1
  18   11   12 1
  19   11   14 1
  20   11   15 1
  21   12   42 1
  22   12   43 1
  23   13   14 am
  24   13   20 1
  25   13   22 1
  26   14   21 2
  27   15   16 ar
  28   15   20 ar
  29   16   17 ar
  30   16   27 1
  31   17   18 ar
  32   17   44 1
  33   18   19 ar
  34   18   45 1
  35   19   20 ar
  36   19   46 1
  37   22   23 1
  38   22   47 1
  39   22   48 1
  40   23   24 1
  41   23   49 1
  42   23   50 1
  43   24   25 1
  44   24   51 1
  45   24   52 1
  46   25   26 1
  47   25   53 1
  48   25   54 1
  49   26   55 1
  50   26   56 1
  51   26   57 1
  52   27   28 ar
  53   27   32 ar
  54   28   29 ar
  55   28   58 1
  56   29   30 ar
  57   29   59 1
  58   30   31 ar
  59   30   33 1
  60   31   32 ar
  61   31   60 1
  62   32   61 1
  63   33   34 1
  64   34   35 1
  65   34   62 1
  66   34   63 1
  67   35   36 1
  68   35   64 1
  69   35   65 1
  70   36   37 1
  71   36   66 1
  72   36   67 1
  73   37   68 1
  74   37   69 1
  75   37   70 1

#	End of record

