#	Name: ASD02120005
#	Creating user name:	WinNT
#	Creation time:	15. 06. 2019 20:18

#	Modifying user name:	WinNT
#	Modification time:	15. 06. 2019 20:18

#	Program:	/corina/corina34_cracker 3.40 0067  02.08.2006

@<TRIPOS>MOLECULE
ASD02120005
 323  326    0    0    0
SMALL
NO_CHARGES


@<TRIPOS>ATOM
   1 C1            -2.7678     5.1276     1.0175 C.3     
   2 C2            -2.8320     3.9477     2.0031 C.3     
   3 C3            -3.2363     4.5370     3.3703 C.3     
   4 C4            -3.9634     5.8576     3.0147 C.3     
   5 C5            -3.1353     6.3928     1.8201 C.3     
   6 C6            -1.3533     5.2597     0.4496 C.3     
   7 C7            -1.3333     6.3377    -0.6033 C.2     
   8 C8            -3.8643     1.7394     2.4582 C.2     
   9 C9            -3.8795     2.9336     1.5391 C.3     
  10 C10           -4.9678     1.3538     3.0494 C.2     
  11 C11           -0.4873     7.3331    -0.5056 C.2     
  12 C12           -5.3869     5.5885     2.5997 C.2     
  13 N13           -3.9172     6.7974     4.1427 N.3     
  14 O14           -5.6705     5.5066     1.4234 O.2     
  15 N15          -24.1764    -1.1759    10.1769 N.3     
  16 C16          -25.6377    -1.0359    10.1219 C.3     
  17 C17          -26.1187    -1.3346     8.7253 C.2     
  18 O18          -27.1841    -1.8889     8.5564 O.2     
  19 C19          -26.2813    -2.0171    11.1037 C.3     
  20 C20          -26.0276     0.3942    10.5007 C.3     
  21 C21          -25.4350     1.3710     9.4830 C.3     
  22 C22          -25.9238     2.7876     9.7913 C.3     
  23 C23          -25.4343     3.7443     8.7023 C.3     
  24 C24          -26.0279     5.1343     8.9400 C.3     
  25 C25          -25.5384     6.0910     7.8510 C.3     
  26 C26          -26.1231     7.4601     8.0852 C.2     
  27 C27          -25.3339     8.5009     8.1856 C.2     
  28 C28          -10.0223    21.3729    -1.9837 C.3     
  29 C29          -10.2373    21.7313    -0.5358 C.2     
  30 O30           -9.3845    22.3450     0.0700 O.2     
  31 N31           -9.4557    18.6237     6.3686 N.3     
  32 C32          -10.0343    18.1154     7.6195 C.3     
  33 C33           -9.2414    16.9243     8.0922 C.2     
  34 O34           -9.0811    16.7349     9.2794 O.2     
  35 C35           -9.9902    19.2128     8.6847 C.3     
  36 C36          -11.4862    17.6979     7.3771 C.3     
  37 C37          -11.5303    16.6006     6.3119 C.3     
  38 C38          -12.9821    16.1831     6.0696 C.3     
  39 C39          -13.0256    15.1022     5.0203 C.2     
  40 C40          -13.6175    13.9624     5.2783 C.2     
  41 C41          -11.5438    23.2392     1.6539 C.3     
  42 C42          -11.5862    21.7182     1.4933 C.3     
  43 C43          -10.5006    21.0941     2.3318 C.2     
  44 N44          -11.3772    21.3698     0.0858 N.am    
  45 O45           -9.4653    20.7449     1.8169 O.2     
  46 C46          -12.7212    23.8643     0.9031 C.3     
  47 C47          -12.6795    25.3624     1.0613 C.2     
  48 O48          -11.7951    25.8792     1.7107 O.2     
  49 N49          -13.6250    26.1279     0.4812 N.am    
  50 C50           -8.5538    21.3353     4.9516 C.3     
  51 C51           -9.6184    20.2842     4.6310 C.3     
  52 C52          -10.7039    20.9083     3.7925 C.2     
  53 N53          -10.1970    19.7759     5.8819 N.3     
  54 O54          -11.7392    21.2575     4.3074 O.2     
  55 O55           -9.1717    22.4661     5.5692 O.3     
  56 C56          -25.4426    -2.7061     5.9274 C.3     
  57 C57          -25.8326    -1.2759     6.3062 C.3     
  58 C58          -25.1986    -0.3095     5.3392 C.2     
  59 N59          -25.3649    -0.9856     7.6639 N.am    
  60 O60          -24.4317     0.5383     5.7442 O.2     
  61 C61          -26.1845    -3.6932     6.8308 C.3     
  62 C62          -25.8004    -5.1019     6.4576 C.2     
  63 O63          -25.0111    -5.2970     5.5578 O.2     
  64 N64          -26.3341    -6.1448     7.1239 N.am    
  65 C65          -25.7566     0.6926     1.8469 C.3     
  66 C66          -24.8676     0.5522     3.0842 C.3     
  67 C67          -23.5128     0.0356     2.6733 C.2     
  68 N68          -25.4839    -0.3873     4.0242 N.am    
  69 O69          -23.1025    -1.0139     3.1216 O.2     
  70 C70          -27.0676     1.3236     2.2393 C.2     
  71 N71          -28.0142     1.5466     1.3062 N.am    
  72 O72          -27.2709     1.6308     3.3948 O.2     
  73 N73          -22.7572     0.7400     1.8076 N.am    
  74 C74           -6.4876    15.3290     7.8976 C.3     
  75 C75           -7.9394    14.9115     7.6553 C.3     
  76 C76           -7.9829    13.8306     6.6061 C.2     
  77 N77           -8.7103    16.0694     7.1957 N.am    
  78 O78           -8.5972    14.0099     5.5759 O.2     
  79 C79           -6.4316    16.3352     9.0488 C.3     
  80 C80           -5.0016    16.7464     9.2875 C.2     
  81 O81           -4.1145    16.2805     8.6042 O.2     
  82 N82           -4.7084    17.6319    10.2604 N.am    
  83 C83           -8.6490    10.7771     5.9747 C.3     
  84 C84           -7.3812    11.6140     5.7926 C.3     
  85 C85           -6.1701    10.7283     5.9334 C.2     
  86 N86           -7.3390    12.6648     6.8125 N.am    
  87 O87           -5.6085    10.6381     6.9989 O.2     
  88 C88           -9.8742    11.6929     5.9387 C.3     
  89 O89           -8.7412     9.8166     4.9207 O.3     
  90 C90           -3.2091     9.7583     5.0175 C.3     
  91 C91           -4.5296     8.9909     4.9280 C.3     
  92 C92           -5.6668     9.9656     4.7610 C.2     
  93 N93           -4.4905     8.0819     3.7746 N.3     
  94 O94           -6.1692    10.1271     3.6745 O.2     
  95 C95           -2.0869     8.7951     5.3070 C.ar    
  96 C96           -1.4024     8.1981     4.2649 C.ar    
  97 C97           -0.3730     7.3144     4.5304 C.ar    
  98 C98           -0.0279     7.0281     5.8380 C.ar    
  99 C99           -0.7118     7.6258     6.8801 C.ar    
 100 C100          -1.7383     8.5128     6.6145 C.ar    
 101 C101          -8.6546     6.2376     3.4437 C.3     
 102 C102          -7.7073     5.0756     3.1382 C.3     
 103 C103          -8.1460     3.8549     3.9052 C.2     
 104 N104          -6.3449     5.4388     3.5358 N.am    
 105 O105          -7.3931     3.3367     4.7025 O.2     
 106 C106          -8.2861     7.4238     2.5904 C.2     
 107 N107          -9.0124     8.5569     2.6618 N.am    
 108 O108          -7.3359     7.3589     1.8395 O.2     
 109 C109          -9.2732     0.9107     3.9790 C.3     
 110 C110          -9.8425     2.2205     4.5278 C.3     
 111 C111         -11.3482     2.1670     4.4938 C.2     
 112 N112          -9.3749     3.3389     3.7052 N.am    
 113 O113         -11.9597     2.8179     3.6732 O.2     
 114 C114          -9.6265    -0.2363     4.9279 C.3     
 115 C115          -9.1025    -1.5537     4.3529 C.3     
 116 C116          -8.9842     0.0155     6.2936 C.3     
 117 C117         -13.8546     0.2493     4.2424 C.3     
 118 C118         -13.4743     1.2894     5.2980 C.3     
 119 C119         -14.0188     0.8672     6.6383 C.2     
 120 N120         -12.0152     1.3959     5.3753 N.am    
 121 O121         -13.2626     0.6743     7.5666 O.2     
 122 C122         -13.4457     0.7445     2.8791 C.2     
 123 C123         -14.0141     1.7464     2.1898 C.2     
 124 N124         -13.3743     1.9098     0.9914 N.pl3   
 125 C125         -12.3527     0.9939     0.8774 C.ar    
 126 C126         -12.3485     0.2279     2.0573 C.ar    
 127 C127         -11.4112     0.7272    -0.1116 C.ar    
 128 C128         -10.4935    -0.2834     0.0721 C.ar    
 129 C129         -10.4975    -1.0406     1.2358 C.ar    
 130 C130         -11.4041    -0.7866     2.2260 C.ar    
 131 C131         -15.8220    -1.2311     8.2231 C.3     
 132 C132         -15.8756     0.2936     8.1082 C.3     
 133 C133         -17.3034     0.7574     8.2390 C.2     
 134 N134         -15.3462     0.7041     6.8053 N.am    
 135 O135         -17.8273     1.3705     7.3331 O.2     
 136 N136         -12.9128    -3.6585     8.3229 N.pl3   
 137 C137         -12.6146    -4.9974     8.4164 C.2     
 138 N138         -11.3718    -5.3902     8.4098 N.2     
 139 N139         -13.6272    -5.9218     8.5168 N.pl3   
 140 C140         -14.3632    -1.6922     8.2154 C.3     
 141 C141         -14.3097    -3.2170     8.3303 C.3     
 142 C142         -19.5538     2.3290     9.7910 C.3     
 143 C143         -19.4175     0.8443     9.4475 C.3     
 144 C144         -20.0777     0.0177    10.5207 C.2     
 145 N145         -17.9983     0.4910     9.3627 N.am    
 146 O146         -19.4268    -0.3967    11.4500 O.2     
 147 C147         -21.0256     2.7386     9.7086 C.3     
 148 C148         -21.1772     4.1910    10.1652 C.3     
 149 C149         -21.5122     2.6045     8.2643 C.3     
 150 C150         -21.9214    -2.5102    11.4634 C.3     
 151 C151         -22.2150    -1.0121    11.5658 C.3     
 152 C152         -21.5300    -0.2876    10.4358 C.2     
 153 N153         -23.6647    -0.7903    11.4821 N.3     
 154 O154         -22.1610     0.0450     9.4610 O.2     
 155 C155         -22.5117    -3.2297    12.6778 C.3     
 156 C156         -22.3279    -4.7398    12.5150 C.3     
 157 C157         -21.7944    -2.7624    13.9459 C.3     
 158 H158          -3.4823     4.9774     0.2082 H       
 159 H159          -1.8555     3.4692     2.0768 H       
 160 H160          -3.9107     3.8592     3.8935 H       
 161 H161          -2.3522     4.7392     3.9750 H       
 162 H162          -2.2349     6.8946     2.1745 H       
 163 H163          -3.7360     7.0692     1.2121 H       
 164 H164          -0.6629     5.5220     1.2513 H       
 165 H165          -1.0504     4.3118     0.0048 H       
 166 H166          -2.0165     6.2897    -1.4383 H       
 167 H167          -2.9436     1.2015     2.6294 H       
 168 H168          -4.8666     3.3956     1.5599 H       
 169 H169          -3.6498     2.6131     0.5230 H       
 170 H170          -4.9569     0.4980     3.7081 H       
 171 H171          -5.8886     1.8917     2.8782 H       
 172 H172          -0.4730     8.1057    -1.2601 H       
 173 H173           0.1959     7.3812     0.3295 H       
 174 H174          -4.3807     6.4133     4.9525 H       
 175 H175         -23.8940    -2.1155     9.9409 H       
 176 H176         -25.9334    -1.8011    12.1138 H       
 177 H177         -27.3656    -1.9132    11.0629 H       
 178 H178         -26.0035    -3.0360    10.8338 H       
 179 H179         -27.1137     0.4862    10.5028 H       
 180 H180         -25.6415     0.6252    11.4935 H       
 181 H181         -24.3470     1.3412     9.5417 H       
 182 H182         -25.7526     1.0873     8.4796 H       
 183 H183         -27.0133     2.7977     9.8209 H       
 184 H184         -25.5312     3.1053    10.7573 H       
 185 H185         -24.3464     3.8037     8.7330 H       
 186 H186         -25.7507     3.3762     7.7263 H       
 187 H187         -27.1158     5.0749     8.9093 H       
 188 H188         -25.7115     5.5024     9.9160 H       
 189 H189         -24.4505     6.1504     7.8817 H       
 190 H190         -25.8548     5.7229     6.8750 H       
 191 H191         -27.1926     7.5832     8.1703 H       
 192 H192         -24.2643     8.3778     8.1005 H       
 193 H193         -25.7529     9.4820     8.3534 H       
 194 H194          -9.0514    21.7458    -2.3101 H       
 195 H195         -10.0524    20.2893    -2.0982 H       
 196 H196         -10.8075    21.8243    -2.5902 H       
 197 H197          -8.4785    18.8458     6.4862 H       
 198 H198         -10.5638    20.0743     8.3428 H       
 199 H199         -10.4196    18.8356     9.6129 H       
 200 H200          -8.9559    19.5102     8.8573 H       
 201 H201         -11.9155    17.3208     8.3053 H       
 202 H202         -12.0597    18.5595     7.0352 H       
 203 H203         -11.1009    16.9777     5.3837 H       
 204 H204         -10.9567    15.7390     6.6538 H       
 205 H205         -13.4115    15.8059     6.9977 H       
 206 H206         -13.5557    17.0446     5.7276 H       
 207 H207         -12.5687    15.2673     4.0557 H       
 208 H208         -14.0744    13.7973     6.2429 H       
 209 H209         -13.6486    13.1878     4.5263 H       
 210 H210         -11.6103    23.4949     2.7114 H       
 211 H211         -10.6083    23.6217     1.2458 H       
 212 H212         -12.5570    21.3453     1.8196 H       
 213 H213         -12.0592    20.8790    -0.3988 H       
 214 H214         -12.6548    23.6087    -0.1544 H       
 215 H215         -13.6567    23.4818     1.3113 H       
 216 H216         -14.3324    25.7146    -0.0381 H       
 217 H217         -13.5982    27.0922     0.5831 H       
 218 H218          -7.8152    20.9090     5.6305 H       
 219 H219          -8.0626    21.6478     4.0301 H       
 220 H220          -9.1622    19.4611     4.0809 H       
 221 H221         -11.1742    19.5538     5.7642 H       
 222 H222          -8.5547    23.1739     5.8006 H       
 223 H223         -25.7113    -2.8926     4.8876 H       
 224 H224         -24.3677    -2.8351     6.0537 H       
 225 H225         -26.9168    -1.1720     6.2654 H       
 226 H226         -24.5128    -0.5423     7.7989 H       
 227 H227         -25.9159    -3.5067     7.8705 H       
 228 H228         -27.2594    -3.5641     6.7044 H       
 229 H229         -26.9655    -5.9887     7.8436 H       
 230 H230         -26.0869    -7.0515     6.8837 H       
 231 H231         -25.2569     1.3213     1.1099 H       
 232 H232         -25.9414    -0.2926     1.4186 H       
 233 H233         -24.7556     1.5248     3.5633 H       
 234 H234         -26.0973    -1.0653     3.7003 H       
 235 H235         -27.8516     1.3009     0.3820 H       
 236 H236         -28.8581     1.9528     1.5588 H       
 237 H237         -23.0854     1.5794     1.4491 H       
 238 H238         -21.8852     0.4075     1.5432 H       
 239 H239          -5.8949    14.4507     8.1536 H       
 240 H240          -6.0858    15.7878     6.9942 H       
 241 H241          -8.3688    14.5344     8.5834 H       
 242 H242          -8.8385    16.2209     6.2462 H       
 243 H243          -7.0243    17.2135     8.7929 H       
 244 H244          -6.8334    15.8764     9.9523 H       
 245 H245          -5.4179    18.0045    10.8069 H       
 246 H246          -3.7880    17.8965    10.4140 H       
 247 H247          -8.6091    10.2612     6.9340 H       
 248 H248          -7.3854    12.0690     4.8021 H       
 249 H249          -6.8476    12.5214     7.6365 H       
 250 H250          -9.9141    12.2089     4.9794 H       
 251 H251         -10.7774    11.0967     6.0684 H       
 252 H252          -9.8038    12.4256     6.7427 H       
 253 H253          -8.0416     9.1492     4.9344 H       
 254 H254          -3.0183    10.2647     4.0713 H       
 255 H255          -3.2708    10.4955     5.8181 H       
 256 H256          -4.6770     8.4136     5.8407 H       
 257 H257          -3.9861     8.4958     3.0050 H       
 258 H258          -1.6720     8.4217     3.2433 H       
 259 H259           0.1613     6.8475     3.7163 H       
 260 H260           0.7759     6.3372     6.0455 H       
 261 H261          -0.4424     7.4019     7.9017 H       
 262 H262          -2.2702     8.9826     7.4286 H       
 263 H263          -9.6796     5.9377     3.2257 H       
 264 H264          -8.5710     6.5073     4.4965 H       
 265 H265          -7.7288     4.8606     2.0698 H       
 266 H266          -6.1323     5.5715     4.4729 H       
 267 H267          -9.7723     8.6088     3.2624 H       
 268 H268          -8.7752     9.3205     2.1126 H       
 269 H269          -9.6996     0.7130     2.9955 H       
 270 H270          -8.1895     0.9924     3.8954 H       
 271 H271          -9.5071     2.3601     5.5555 H       
 272 H272          -9.9497     3.7081     3.0166 H       
 273 H273         -10.7091    -0.2942     5.0407 H       
 274 H274          -8.0198    -1.4958     4.2402 H       
 275 H275          -9.3542    -2.3708     5.0290 H       
 276 H276          -9.5600    -1.7331     3.3800 H       
 277 H277          -7.8990    -0.0079     6.1946 H       
 278 H278          -9.2941     0.9917     6.6664 H       
 279 H279          -9.3020    -0.7581     6.9927 H       
 280 H280         -13.3433    -0.6893     4.4564 H       
 281 H281         -14.9325     0.0886     4.2624 H       
 282 H282         -13.8951     2.2566     5.0232 H       
 283 H283         -11.5292     0.9115     6.0608 H       
 284 H284         -14.8526     2.3357     2.5305 H       
 285 H285         -13.6062     2.5722     0.3217 H       
 286 H286         -11.4002     1.3105    -1.0205 H       
 287 H287          -9.7637    -0.4891    -0.6969 H       
 288 H288          -9.7712    -1.8297     1.3639 H       
 289 H289         -11.3999    -1.3784     3.1294 H       
 290 H290         -16.2965    -1.5422     9.1537 H       
 291 H291         -16.3487    -1.6777     7.3797 H       
 292 H292         -15.2748     0.7390     8.9011 H       
 293 H293         -15.9511     0.8584     6.0628 H       
 294 H294         -12.1984    -3.0063     8.2521 H       
 295 H295         -11.1614    -6.3348     8.4758 H       
 296 H296         -14.5521    -5.6295     8.5216 H       
 297 H297         -13.4168    -6.8664     8.5827 H       
 298 H298         -13.8887    -1.3811     7.2847 H       
 299 H299         -13.8365    -1.2456     9.0587 H       
 300 H300         -14.8364    -3.6636     7.4869 H       
 301 H301         -14.7842    -3.5281     9.2609 H       
 302 H302         -19.1841     2.5036    10.8015 H       
 303 H303         -18.9719     2.9205     9.0841 H       
 304 H304         -19.8988     0.6474     8.4895 H       
 305 H305         -17.5586     0.0653    10.1153 H       
 306 H306         -21.6196     2.0911    10.3537 H       
 307 H307         -20.5833     4.8385     9.5201 H       
 308 H308         -22.2258     4.4827    10.1064 H       
 309 H309         -20.8306     4.2865    11.1941 H       
 310 H310         -21.3120     1.5948     7.9057 H       
 311 H311         -22.5839     2.7992     8.2224 H       
 312 H312         -20.9874     3.3240     7.6358 H       
 313 H313         -22.3700    -2.9069    10.5526 H       
 314 H314         -20.8433    -2.6681    11.4361 H       
 315 H315         -21.8439    -0.6334    12.5181 H       
 316 H316         -23.8965     0.1689    11.6924 H       
 317 H317         -23.5743    -2.9993    12.7556 H       
 318 H318         -21.2653    -4.9702    12.4372 H       
 319 H319         -22.7484    -5.2524    13.3802 H       
 320 H320         -22.8389    -5.0727    11.6116 H       
 321 H321         -21.9254    -1.6865    14.0619 H       
 322 H322         -22.2149    -3.2749    14.8110 H       
 323 H323         -20.7318    -2.9927    13.8681 H       
@<TRIPOS>BOND
   1    1    2 1
   2    1    6 1
   3    1    5 1
   4    1  158 1
   5    2    3 1
   6    2    9 1
   7    2  159 1
   8    3    4 1
   9    3  160 1
  10    3  161 1
  11    4    5 1
  12    4   12 1
  13    4   13 1
  14    5  162 1
  15    5  163 1
  16    6    7 1
  17    6  164 1
  18    6  165 1
  19    7   11 2
  20    7  166 1
  21    8    9 1
  22    8   10 2
  23    8  167 1
  24    9  168 1
  25    9  169 1
  26   10  170 1
  27   10  171 1
  28   11  172 1
  29   11  173 1
  30   12   14 2
  31   12  104 am
  32   13   93 1
  33   13  174 1
  34   15   16 1
  35   15  153 1
  36   15  175 1
  37   16   17 1
  38   16   19 1
  39   16   20 1
  40   17   18 2
  41   17   59 am
  42   19  176 1
  43   19  177 1
  44   19  178 1
  45   20   21 1
  46   20  179 1
  47   20  180 1
  48   21   22 1
  49   21  181 1
  50   21  182 1
  51   22   23 1
  52   22  183 1
  53   22  184 1
  54   23   24 1
  55   23  185 1
  56   23  186 1
  57   24   25 1
  58   24  187 1
  59   24  188 1
  60   25   26 1
  61   25  189 1
  62   25  190 1
  63   26   27 2
  64   26  191 1
  65   27  192 1
  66   27  193 1
  67   28   29 1
  68   28  194 1
  69   28  195 1
  70   28  196 1
  71   29   30 2
  72   29   44 am
  73   31   32 1
  74   31   53 1
  75   31  197 1
  76   32   33 1
  77   32   35 1
  78   32   36 1
  79   33   34 2
  80   33   77 am
  81   35  198 1
  82   35  199 1
  83   35  200 1
  84   36   37 1
  85   36  201 1
  86   36  202 1
  87   37   38 1
  88   37  203 1
  89   37  204 1
  90   38   39 1
  91   38  205 1
  92   38  206 1
  93   39   40 2
  94   39  207 1
  95   40  208 1
  96   40  209 1
  97   41   46 1
  98   41   42 1
  99   41  210 1
 100   41  211 1
 101   42   44 1
 102   42   43 1
 103   42  212 1
 104   43   45 2
 105   43   52 1
 106   44  213 1
 107   46   47 1
 108   46  214 1
 109   46  215 1
 110   47   48 2
 111   47   49 am
 112   49  216 1
 113   49  217 1
 114   50   55 1
 115   50   51 1
 116   50  218 1
 117   50  219 1
 118   51   53 1
 119   51   52 1
 120   51  220 1
 121   52   54 2
 122   53  221 1
 123   55  222 1
 124   56   61 1
 125   56   57 1
 126   56  223 1
 127   56  224 1
 128   57   59 1
 129   57   58 1
 130   57  225 1
 131   58   60 2
 132   58   68 am
 133   59  226 1
 134   61   62 1
 135   61  227 1
 136   61  228 1
 137   62   63 2
 138   62   64 am
 139   64  229 1
 140   64  230 1
 141   65   70 1
 142   65   66 1
 143   65  231 1
 144   65  232 1
 145   66   68 1
 146   66   67 1
 147   66  233 1
 148   67   69 2
 149   67   73 am
 150   68  234 1
 151   70   71 am
 152   70   72 2
 153   71  235 1
 154   71  236 1
 155   73  237 1
 156   73  238 1
 157   74   79 1
 158   74   75 1
 159   74  239 1
 160   74  240 1
 161   75   77 1
 162   75   76 1
 163   75  241 1
 164   76   78 2
 165   76   86 am
 166   77  242 1
 167   79   80 1
 168   79  243 1
 169   79  244 1
 170   80   81 2
 171   80   82 am
 172   82  245 1
 173   82  246 1
 174   83   84 1
 175   83   88 1
 176   83   89 1
 177   83  247 1
 178   84   86 1
 179   84   85 1
 180   84  248 1
 181   85   87 2
 182   85   92 1
 183   86  249 1
 184   88  250 1
 185   88  251 1
 186   88  252 1
 187   89  253 1
 188   90   95 1
 189   90   91 1
 190   90  254 1
 191   90  255 1
 192   91   92 1
 193   91   93 1
 194   91  256 1
 195   92   94 2
 196   93  257 1
 197   95   96 ar
 198   95  100 ar
 199   96   97 ar
 200   96  258 1
 201   97   98 ar
 202   97  259 1
 203   98   99 ar
 204   98  260 1
 205   99  100 ar
 206   99  261 1
 207  100  262 1
 208  101  106 1
 209  101  102 1
 210  101  263 1
 211  101  264 1
 212  102  104 1
 213  102  103 1
 214  102  265 1
 215  103  105 2
 216  103  112 am
 217  104  266 1
 218  106  107 am
 219  106  108 2
 220  107  267 1
 221  107  268 1
 222  109  114 1
 223  109  110 1
 224  109  269 1
 225  109  270 1
 226  110  112 1
 227  110  111 1
 228  110  271 1
 229  111  113 2
 230  111  120 am
 231  112  272 1
 232  114  115 1
 233  114  116 1
 234  114  273 1
 235  115  274 1
 236  115  275 1
 237  115  276 1
 238  116  277 1
 239  116  278 1
 240  116  279 1
 241  117  122 1
 242  117  118 1
 243  117  280 1
 244  117  281 1
 245  118  119 1
 246  118  120 1
 247  118  282 1
 248  119  121 2
 249  119  134 am
 250  120  283 1
 251  122  123 2
 252  122  126 1
 253  123  124 1
 254  123  284 1
 255  124  125 1
 256  124  285 1
 257  125  126 ar
 258  125  127 ar
 259  126  130 ar
 260  127  128 ar
 261  127  286 1
 262  128  129 ar
 263  128  287 1
 264  129  130 ar
 265  129  288 1
 266  130  289 1
 267  131  140 1
 268  131  132 1
 269  131  290 1
 270  131  291 1
 271  132  134 1
 272  132  133 1
 273  132  292 1
 274  133  135 2
 275  133  145 am
 276  134  293 1
 277  136  141 1
 278  136  137 1
 279  136  294 1
 280  137  138 2
 281  137  139 1
 282  138  295 1
 283  139  296 1
 284  139  297 1
 285  140  141 1
 286  140  298 1
 287  140  299 1
 288  141  300 1
 289  141  301 1
 290  142  147 1
 291  142  143 1
 292  142  302 1
 293  142  303 1
 294  143  145 1
 295  143  144 1
 296  143  304 1
 297  144  146 2
 298  144  152 1
 299  145  305 1
 300  147  148 1
 301  147  149 1
 302  147  306 1
 303  148  307 1
 304  148  308 1
 305  148  309 1
 306  149  310 1
 307  149  311 1
 308  149  312 1
 309  150  155 1
 310  150  151 1
 311  150  313 1
 312  150  314 1
 313  151  153 1
 314  151  152 1
 315  151  315 1
 316  152  154 2
 317  153  316 1
 318  155  156 1
 319  155  157 1
 320  155  317 1
 321  156  318 1
 322  156  319 1
 323  156  320 1
 324  157  321 1
 325  157  322 1
 326  157  323 1

#	End of record

