#	Name: ASD03731885
#	Creating user name:	WinNT
#	Creation time:	15. 06. 2019 20:46

#	Modifying user name:	WinNT
#	Modification time:	15. 06. 2019 20:46

#	Program:	/corina/corina34_cracker 3.40 0067  02.08.2006

@<TRIPOS>MOLECULE
ASD03731885
  32   33    0    0    0
SMALL
NO_CHARGES


@<TRIPOS>ATOM
   1 C1            -0.0028    -0.0030     0.1466 C.1     
   2 C2            -0.0206     1.4286     0.1176 C.ar    
   3 C3            -0.0035     2.1064    -1.1073 C.ar    
   4 C4            -0.0212     3.4864    -1.1300 C.ar    
   5 C5            -0.0556     4.2018     0.0595 C.ar    
   6 C6            -0.0727     3.5317     1.2798 C.ar    
   7 C7            -0.0610     2.1538     1.3124 C.ar    
   8 N8             0.0114    -1.1387     0.1696 N.1     
   9 O9            -0.0720     5.5591     0.0325 O.3     
  10 C10            1.1162     6.2143     0.1298 C.ar    
  11 C11            1.1556     7.6028     0.0371 C.ar    
  12 C12            2.3666     8.2674     0.1365 C.ar    
  13 C13            3.5373     7.5485     0.3280 C.ar    
  14 C14            3.4957     6.1655     0.4196 C.ar    
  15 C15            2.2871     5.5007     0.3269 C.ar    
  16 O16            4.7266     8.2004     0.4256 O.3     
  17 C17            5.8922     7.3976     0.6225 C.3     
  18 F18            6.0357     6.5126    -0.4515 F       
  19 F19            7.0192     8.2229     0.7004 F       
  20 F20            5.7630     6.6713     1.8112 F       
  21 O21            0.0068     8.3055    -0.1511 O.3     
  22 C22            0.1226     9.7272    -0.2369 C.3     
  23 F23           -0.1057     4.2333     2.4339 F       
  24 F24            0.0309     1.4110    -2.2651 F       
  25 H25           -0.0080     4.0104    -2.0742 H       
  26 H26           -0.0785     1.6351     2.2595 H       
  27 H27            2.3994     9.3445     0.0645 H       
  28 H28            4.4082     5.6072     0.5681 H       
  29 H29            2.2563     4.4238     0.4036 H       
  30 H30           -0.8649    10.1637    -0.3869 H       
  31 H31            0.5538    10.1130     0.6868 H       
  32 H32            0.7670     9.9893    -1.0760 H       
@<TRIPOS>BOND
   1    1    2 1
   2    1    8 3
   3    2    3 ar
   4    2    7 ar
   5    3    4 ar
   6    3   24 1
   7    4    5 ar
   8    4   25 1
   9    5    6 ar
  10    5    9 1
  11    6    7 ar
  12    6   23 1
  13    7   26 1
  14    9   10 1
  15   10   11 ar
  16   10   15 ar
  17   11   12 ar
  18   11   21 1
  19   12   13 ar
  20   12   27 1
  21   13   14 ar
  22   13   16 1
  23   14   15 ar
  24   14   28 1
  25   15   29 1
  26   16   17 1
  27   17   18 1
  28   17   19 1
  29   17   20 1
  30   21   22 1
  31   22   30 1
  32   22   31 1
  33   22   32 1

#	End of record

