#	Name: ASD01148792
#	Creating user name:	WinNT
#	Creation time:	15. 06. 2019 19:03

#	Modifying user name:	WinNT
#	Modification time:	15. 06. 2019 19:03

#	Program:	/corina/corina34_cracker 3.40 0067  02.08.2006

@<TRIPOS>MOLECULE
ASD01148792
  60   64    0    0    0
SMALL
NO_CHARGES


@<TRIPOS>ATOM
   1 N1             0.0208     1.3868    -0.1473 N.pl3   
   2 C2             0.0053     0.0369    -0.2486 C.2     
   3 C3             1.2646    -0.4451    -0.0229 C.2     
   4 C4             2.1184     0.7273     0.2391 C.2     
   5 C5             1.2862     1.8303     0.1469 C.2     
   6 C6             1.6838    -1.8534    -0.0379 C.2     
   7 O7             2.0704    -2.3615    -1.0725 O.2     
   8 O8             1.6396    -2.5820     1.0955 O.3     
   9 C9            -1.0954     2.2145    -0.3238 C.ar    
  10 C10           -2.1419     2.1750     0.5881 C.ar    
  11 C11           -3.2412     2.9924     0.4113 C.ar    
  12 C12           -3.3004     3.8490    -0.6726 C.ar    
  13 C13           -2.2601     3.8903    -1.5826 C.ar    
  14 C14           -1.1551     3.0803    -1.4077 C.ar    
  15 S15           -4.7048     4.8897    -0.8949 S.o2    
  16 O16           -4.7547     5.2061    -2.2793 O.2     
  17 O17           -5.7780     4.2693    -0.2003 O.2     
  18 N18           -4.3931     6.3096    -0.1017 N.am    
  19 C19           -1.2076    -0.8015    -0.5602 C.3     
  20 C20            1.6895     3.2376     0.3322 C.ar    
  21 C21            1.0108     4.0474     1.2463 C.ar    
  22 C22            1.3928     5.3617     1.4146 C.ar    
  23 C23            2.4466     5.8793     0.6800 C.ar    
  24 C24            3.1233     5.0820    -0.2281 C.ar    
  25 C25            2.7554     3.7643    -0.4015 C.ar    
  26 Cl26           2.9210     7.5349     0.8979 Cl      
  27 O27            4.1108     1.1189     1.7049 O.3     
  28 C28            3.5609     0.7261     0.5386 C.2     
  29 C29            4.5357     0.3283    -0.3181 C.2     
  30 C30            5.8004     0.4970     0.4001 C.ar    
  31 C31            5.4538     0.9988     1.6680 C.ar    
  32 C32            7.1395     0.2704     0.0789 C.ar    
  33 C33            8.1126     0.5382     1.0017 C.ar    
  34 C34            7.7764     1.0326     2.2533 C.ar    
  35 C35            6.4582     1.2635     2.5890 C.ar    
  36 C36            2.0686    -3.9663     1.0064 C.3     
  37 C37            1.9491    -4.6268     2.3813 C.3     
  38 H38           -2.0965     1.5057     1.4344 H       
  39 H39           -4.0554     2.9621     1.1201 H       
  40 H40           -2.3094     4.5602    -2.4283 H       
  41 H41           -0.3408     3.1165    -2.1162 H       
  42 H42           -4.7794     7.1394    -0.4229 H       
  43 H43           -3.8244     6.3115     0.6840 H       
  44 H44           -1.2926    -0.9307    -1.6391 H       
  45 H45           -1.1071    -1.7769    -0.0842 H       
  46 H46           -2.1005    -0.3032    -0.1825 H       
  47 H47            0.1887     3.6450     1.8195 H       
  48 H48            0.8687     5.9889     2.1206 H       
  49 H49            3.9437     5.4919    -0.7984 H       
  50 H50            3.2872     3.1422    -1.1062 H       
  51 H51            4.4049    -0.0388    -1.3254 H       
  52 H52            7.4061    -0.1152    -0.8941 H       
  53 H53            9.1493     0.3634     0.7546 H       
  54 H54            8.5549     1.2395     2.9726 H       
  55 H55            6.2083     1.6491     3.5664 H       
  56 H56            1.4385    -4.4968     0.2925 H       
  57 H57            3.1060    -4.0045     0.6739 H       
  58 H58            2.2712    -5.6660     2.3144 H       
  59 H59            2.5792    -4.0964     3.0952 H       
  60 H60            0.9118    -4.5886     2.7138 H       
@<TRIPOS>BOND
   1    1    2 1
   2    1    5 1
   3    1    9 1
   4    2    3 2
   5    2   19 1
   6    3    4 1
   7    3    6 1
   8    4    5 2
   9    4   28 1
  10    5   20 1
  11    6    7 2
  12    6    8 1
  13    8   36 1
  14    9   10 ar
  15    9   14 ar
  16   10   11 ar
  17   10   38 1
  18   11   12 ar
  19   11   39 1
  20   12   13 ar
  21   12   15 1
  22   13   14 ar
  23   13   40 1
  24   14   41 1
  25   15   16 2
  26   15   17 2
  27   15   18 am
  28   18   42 1
  29   18   43 1
  30   19   44 1
  31   19   45 1
  32   19   46 1
  33   20   21 ar
  34   20   25 ar
  35   21   22 ar
  36   21   47 1
  37   22   23 ar
  38   22   48 1
  39   23   24 ar
  40   23   26 1
  41   24   25 ar
  42   24   49 1
  43   25   50 1
  44   27   28 1
  45   27   31 1
  46   28   29 2
  47   29   30 1
  48   29   51 1
  49   30   31 ar
  50   30   32 ar
  51   31   35 ar
  52   32   33 ar
  53   32   52 1
  54   33   34 ar
  55   33   53 1
  56   34   35 ar
  57   34   54 1
  58   35   55 1
  59   36   37 1
  60   36   56 1
  61   36   57 1
  62   37   58 1
  63   37   59 1
  64   37   60 1

#	End of record

