#	Name: ASD03092929
#	Creating user name:	WinNT
#	Creation time:	15. 06. 2019 20:33

#	Modifying user name:	WinNT
#	Modification time:	15. 06. 2019 20:33

#	Program:	/corina/corina34_cracker 3.40 0067  02.08.2006

@<TRIPOS>MOLECULE
ASD03092929
  37   39    0    0    0
SMALL
NO_CHARGES


@<TRIPOS>ATOM
   1 C1            -0.0316     1.5398     0.0085 C.3     
   2 C2            -0.0039     0.0101     0.0024 C.3     
   3 N3            -1.3759    -0.5032     0.0126 N.pl3   
   4 C4            -2.0580    -0.8635     1.1258 C.2     
   5 C5            -3.3053    -1.2968     0.7829 C.2     
   6 C6            -4.3519    -1.7738     1.6959 C.2     
   7 O7            -5.4271    -2.1329     1.2541 O.2     
   8 N8            -4.1214    -1.8137     3.0232 N.am    
   9 C9            -5.1448    -2.1621     3.8958 C.ar    
  10 C10           -4.8929    -2.3113     5.2600 C.ar    
  11 C11           -5.9441    -2.6590     6.0870 C.ar    
  12 N12           -7.1475    -2.8379     5.5620 N.ar    
  13 C13           -7.3526    -2.6892     4.2686 C.ar    
  14 N14           -6.3808    -2.3533     3.4451 N.ar    
  15 C15           -5.7244    -2.8329     7.5677 C.3     
  16 F16           -5.9287    -1.6103     8.2163 F       
  17 F17           -6.6254    -3.7808     8.0647 F       
  18 F18           -4.4150    -3.2692     7.7968 F       
  19 C19           -3.3957    -1.1912    -0.6851 C.ar    
  20 C20           -4.3921    -1.4750    -1.6154 C.ar    
  21 C21           -4.1545    -1.2590    -2.9575 C.ar    
  22 F22           -5.1180    -1.5327    -3.8641 F       
  23 C23           -2.9286    -0.7607    -3.3797 C.ar    
  24 C24           -1.9351    -0.4767    -2.4680 C.ar    
  25 C25           -2.1583    -0.6824    -1.1108 C.ar    
  26 H26            0.9893     1.9217     0.0010 H       
  27 H27           -0.5597     1.8972    -0.8755 H       
  28 H28           -0.5440     1.8904     0.9044 H       
  29 H29            0.5086    -0.3405    -0.8934 H       
  30 H30            0.5243    -0.3473     0.8865 H       
  31 H31           -1.6723    -0.8155     2.1334 H       
  32 H32           -3.2410    -1.5991     3.3692 H       
  33 H33           -3.9011    -2.1593     5.6596 H       
  34 H34           -8.3460    -2.8426     3.8736 H       
  35 H35           -5.3457    -1.8625    -1.2884 H       
  36 H36           -2.7524    -0.5946    -4.4322 H       
  37 H37           -0.9854    -0.0899    -2.8069 H       
@<TRIPOS>BOND
   1    1    2 1
   2    1   26 1
   3    1   27 1
   4    1   28 1
   5    2    3 1
   6    2   29 1
   7    2   30 1
   8    3   25 1
   9    3    4 1
  10    4    5 2
  11    4   31 1
  12    5    6 1
  13    5   19 1
  14    6    7 2
  15    6    8 am
  16    8    9 1
  17    8   32 1
  18    9   14 ar
  19    9   10 ar
  20   10   11 ar
  21   10   33 1
  22   11   12 ar
  23   11   15 1
  24   12   13 ar
  25   13   14 ar
  26   13   34 1
  27   15   16 1
  28   15   17 1
  29   15   18 1
  30   19   25 ar
  31   19   20 ar
  32   20   21 ar
  33   20   35 1
  34   21   22 1
  35   21   23 ar
  36   23   24 ar
  37   23   36 1
  38   24   25 ar
  39   24   37 1

#	End of record

