#	Name: ASD01882310
#	Creating user name:	WinNT
#	Creation time:	15. 06. 2019 19:44

#	Modifying user name:	WinNT
#	Modification time:	15. 06. 2019 19:44

#	Program:	/corina/corina34_cracker 3.40 0067  02.08.2006

@<TRIPOS>MOLECULE
ASD01882310
  57   62    0    0    0
SMALL
NO_CHARGES


@<TRIPOS>ATOM
   1 C1            -0.4201     1.0178     0.0963 C.3     
   2 O2            -0.0220    -0.3498    -0.0909 O.3     
   3 C3             1.3100    -0.2759    -0.6333 C.3     
   4 C4             1.9012     1.0124    -0.1098 C.ar    
   5 C5             3.1968     1.4769    -0.0175 C.ar    
   6 C6             3.4453     2.7269     0.5194 C.ar    
   7 C7             2.3960     3.5102     0.9634 C.ar    
   8 C8             1.0971     3.0450     0.8703 C.ar    
   9 C9             0.8484     1.7983     0.3340 C.ar    
  10 N10           -3.2063     0.6831    -0.2045 N.pl3   
  11 C11           -2.3767     0.6825    -1.4170 C.3     
  12 C12           -1.1257     1.5290    -1.1585 C.3     
  13 C13           -1.3434     1.1291     1.3078 C.3     
  14 C14           -2.5969     0.2802     1.0703 C.3     
  15 C15            2.1403    -1.4691    -0.1560 C.3     
  16 C16            1.2559    -0.2481    -2.1621 C.3     
  17 C17           -6.7887     0.7109    -1.0208 C.2     
  18 C18           -5.4415     0.3112    -0.9784 C.2     
  19 C19           -4.5462     1.0593    -0.2623 C.2     
  20 C20           -4.9898     2.2141     0.4176 C.2     
  21 C21           -6.2857     2.5791     0.3630 C.2     
  22 N22           -7.1866     1.8403    -0.3476 N.pl3   
  23 N23           -8.8823     0.9597    -1.3422 N.2     
  24 N24           -7.8662     0.2181    -1.6126 N.2     
  25 C25           -8.5255     1.9588    -0.5787 C.2     
  26 C26           -9.4281     3.0447    -0.0523 C.3     
  27 C27           -9.4608     4.2072    -1.0465 C.3     
  28 C28          -10.4165     5.3644    -0.7492 C.3     
  29 C29           -8.9082     5.5544    -0.5767 C.3     
  30 Cl30          -4.9203    -1.1135    -1.8224 Cl      
  31 H31            4.0164     0.8648    -0.3639 H       
  32 H32            4.4594     3.0912     0.5923 H       
  33 H33            2.5910     4.4859     1.3835 H       
  34 H34            0.2777     3.6573     1.2169 H       
  35 H35           -2.0833    -0.3391    -1.6585 H       
  36 H36           -2.9414     1.1086    -2.2463 H       
  37 H37           -1.4143     2.5702    -1.0149 H       
  38 H38           -0.4518     1.4521    -2.0117 H       
  39 H39           -0.8234     0.7694     2.1956 H       
  40 H40           -1.6313     2.1705     1.4513 H       
  41 H41           -3.3066     0.4416     1.8817 H       
  42 H42           -2.3218    -0.7736     1.0269 H       
  43 H43            1.6844    -2.3938    -0.5098 H       
  44 H44            3.1528    -1.3886    -0.5516 H       
  45 H45            2.1753    -1.4749     0.9334 H       
  46 H46            0.8457     0.7057    -2.4938 H       
  47 H47            2.2618    -0.3704    -2.5635 H       
  48 H48            0.6214    -1.0599    -2.5180 H       
  49 H49           -4.2875     2.8075     0.9842 H       
  50 H50           -6.6146     3.4644     0.8868 H       
  51 H51          -10.4354     2.6489     0.0771 H       
  52 H52           -9.0503     3.3978     0.9072 H       
  53 H53           -9.3075     3.9368    -2.0913 H       
  54 H54          -10.8918     5.8555    -1.5984 H       
  55 H55          -11.0221     5.2975     0.1546 H       
  56 H56           -8.5214     5.6125     0.4408 H       
  57 H57           -8.3911     6.1705    -1.3123 H       
@<TRIPOS>BOND
   1    1    2 1
   2    1    9 1
   3    1   12 1
   4    1   13 1
   5    2    3 1
   6    3    4 1
   7    3   15 1
   8    3   16 1
   9    4    5 ar
  10    4    9 ar
  11    5    6 ar
  12    5   31 1
  13    6    7 ar
  14    6   32 1
  15    7    8 ar
  16    7   33 1
  17    8    9 ar
  18    8   34 1
  19   10   11 1
  20   10   14 1
  21   10   19 1
  22   11   12 1
  23   11   35 1
  24   11   36 1
  25   12   37 1
  26   12   38 1
  27   13   14 1
  28   13   39 1
  29   13   40 1
  30   14   41 1
  31   14   42 1
  32   15   43 1
  33   15   44 1
  34   15   45 1
  35   16   46 1
  36   16   47 1
  37   16   48 1
  38   17   18 1
  39   17   22 1
  40   17   24 2
  41   18   19 2
  42   18   30 1
  43   19   20 1
  44   20   21 2
  45   20   49 1
  46   21   22 1
  47   21   50 1
  48   22   25 1
  49   23   24 1
  50   23   25 2
  51   25   26 1
  52   26   27 1
  53   26   51 1
  54   26   52 1
  55   27   28 1
  56   27   29 1
  57   27   53 1
  58   28   29 1
  59   28   54 1
  60   28   55 1
  61   29   56 1
  62   29   57 1

#	End of record

