#	Name: ASD00170004
#	Creating user name:	WinNT
#	Creation time:	15. 06. 2019 18:31

#	Modifying user name:	WinNT
#	Modification time:	15. 06. 2019 18:31

#	Program:	/corina/corina34_cracker 3.40 0067  02.08.2006

@<TRIPOS>MOLECULE
ASD00170004
  53   56    0    0    0
SMALL
NO_CHARGES


@<TRIPOS>ATOM
   1 C1             0.4654     1.9393     0.7062 C.3     
   2 C2             5.5674     7.2203    -5.9528 C.ar    
   3 C3             4.9932     6.0515    -5.4991 C.ar    
   4 C4             5.7487     5.1535    -4.7430 C.ar    
   5 C5             7.0823     5.4453    -4.4503 C.ar    
   6 C6             7.6454     6.6174    -4.9091 C.ar    
   7 C7             6.8908     7.5045    -5.6589 C.ar    
   8 C8             5.1388     3.8984    -4.2535 C.2     
   9 C9             5.9617     2.9067    -3.5615 C.2     
  10 O10            3.9515     3.6906    -4.4265 O.2     
  11 Cl11           7.6067     8.9781    -6.2331 Cl      
  12 C12            6.1167     2.8554    -2.1229 C.2     
  13 C13            6.9082     1.8744    -1.7182 C.2     
  14 S14            7.5119     0.9528    -3.0836 S.3     
  15 C15            6.6676     1.9178    -4.2066 C.2     
  16 N16            6.6944     1.7366    -5.5745 N.pl3   
  17 C17            5.4452     3.8216    -1.1812 C.3     
  18 N18            4.0486     3.4147    -0.9761 N.3     
  19 C19            3.4299     4.1855     0.1114 C.3     
  20 C20            1.9572     3.7892     0.2402 C.3     
  21 N21            1.8619     2.3461     0.5011 N.3     
  22 C22            2.4807     1.5753    -0.5864 C.3     
  23 C23            3.9534     1.9717    -0.7152 C.3     
  24 C24            0.3781     0.4350     0.7255 C.ar    
  25 C25            0.5106    -0.2499     1.9189 C.ar    
  26 C26            0.4305    -1.6298     1.9365 C.ar    
  27 C27            0.2175    -2.3248     0.7607 C.ar    
  28 C28            0.0841    -1.6399    -0.4326 C.ar    
  29 C29            0.1598    -0.2598    -0.4495 C.ar    
  30 H30            0.1071     2.3362     1.6561 H       
  31 H31           -0.1494     2.3286    -0.1053 H       
  32 H32            4.9852     7.9136    -6.5416 H       
  33 H33            3.9611     5.8311    -5.7286 H       
  34 H34            7.6715     4.7545    -3.8655 H       
  35 H35            8.6768     6.8443    -4.6831 H       
  36 H36            7.1504     1.6693    -0.6859 H       
  37 H37            7.2821     1.0705    -5.9641 H       
  38 H38            6.1255     2.2754    -6.1463 H       
  39 H39            5.9683     3.8199    -0.2250 H       
  40 H40            5.4725     4.8239    -1.6086 H       
  41 H41            3.9467     3.9733     1.0473 H       
  42 H42            3.5018     5.2502    -0.1108 H       
  43 H43            1.5035     4.3386     1.0651 H       
  44 H44            1.4344     4.0266    -0.6863 H       
  45 H45            2.4087     0.5107    -0.3642 H       
  46 H46            1.9638     1.7875    -1.5223 H       
  47 H47            4.4070     1.4223    -1.5401 H       
  48 H48            4.4762     1.7343     0.2113 H       
  49 H49            0.6770     0.2931     2.8375 H       
  50 H50            0.5347    -2.1649     2.8688 H       
  51 H51            0.1556    -3.4030     0.7744 H       
  52 H52           -0.0820    -2.1830    -1.3512 H       
  53 H53            0.0556     0.2753    -1.3819 H       
@<TRIPOS>BOND
   1    1   24 1
   2    1   21 1
   3    1   30 1
   4    1   31 1
   5    2    3 ar
   6    2    7 ar
   7    2   32 1
   8    3    4 ar
   9    3   33 1
  10    4    5 ar
  11    4    8 1
  12    5    6 ar
  13    5   34 1
  14    6    7 ar
  15    6   35 1
  16    7   11 1
  17    8    9 1
  18    8   10 2
  19    9   12 1
  20    9   15 2
  21   12   13 2
  22   12   17 1
  23   13   14 1
  24   13   36 1
  25   14   15 1
  26   15   16 1
  27   16   37 1
  28   16   38 1
  29   17   18 1
  30   17   39 1
  31   17   40 1
  32   18   19 1
  33   18   23 1
  34   19   20 1
  35   19   41 1
  36   19   42 1
  37   20   21 1
  38   20   43 1
  39   20   44 1
  40   21   22 1
  41   22   23 1
  42   22   45 1
  43   22   46 1
  44   23   47 1
  45   23   48 1
  46   24   25 ar
  47   24   29 ar
  48   25   26 ar
  49   25   49 1
  50   26   27 ar
  51   26   50 1
  52   27   28 ar
  53   27   51 1
  54   28   29 ar
  55   28   52 1
  56   29   53 1

#	End of record

