#	Name: ASD01001051
#	Creating user name:	WinNT
#	Creation time:	15. 06. 2019 18:55

#	Modifying user name:	WinNT
#	Modification time:	15. 06. 2019 18:55

#	Program:	/corina/corina34_cracker 3.40 0067  02.08.2006

@<TRIPOS>MOLECULE
ASD01001051
  49   51    0    0    0
SMALL
NO_CHARGES


@<TRIPOS>ATOM
   1 C1             0.0698     1.8282     1.1432 C.ar    
   2 C2            -0.1730     0.4834     0.8457 C.ar    
   3 C3             1.2927     2.3879     0.8390 C.ar    
   4 C4             0.8284    -0.2833     0.2413 C.ar    
   5 C5             2.2784     1.6226     0.2405 C.ar    
   6 C6             2.0460     0.2910    -0.0567 C.ar    
   7 C7             3.6118     2.2426    -0.0895 C.3     
   8 C8             4.6857     1.1873    -0.0267 C.ar    
   9 C9             3.5637     2.8285    -1.4771 C.ar    
  10 S10            3.9818     3.5539     1.1081 S.3     
  11 C11            5.5055     0.9697    -1.1183 C.ar    
  12 C12            4.8548     0.4408     1.1244 C.ar    
  13 C13            3.2794     2.0180    -2.5602 C.ar    
  14 C14            3.7984     4.1776    -1.6662 C.ar    
  15 C15            5.6723     4.0430     0.6683 C.3     
  16 C16            6.4944     0.0055    -1.0587 C.ar    
  17 C17            5.8399    -0.5273     1.1819 C.ar    
  18 C18            3.2298     2.5565    -3.8323 C.ar    
  19 C19            3.7544     4.7151    -2.9390 C.ar    
  20 C20            6.1568     5.1274     1.6328 C.3     
  21 C21            6.6637    -0.7407     0.0925 C.ar    
  22 C22            3.4640     3.9057    -4.0214 C.ar    
  23 N23            7.5258     5.5235     1.2766 N.3     
  24 H24            5.4988     5.9938     1.5656 H       
  25 C25           -1.4752    -0.1219     1.1674 C.2     
  26 O26           -2.3411     0.5456     1.6918 O.2     
  27 C27           -1.7326    -1.5714     0.8452 C.3     
  28 H28           -0.7001     2.4279     1.6058 H       
  29 H29            1.4817     3.4262     1.0681 H       
  30 H30            0.6486    -1.3226     0.0088 H       
  31 H31            2.8204    -0.2998    -0.5234 H       
  32 H32            5.3732     1.5526    -2.0177 H       
  33 H33            4.2174     0.6141     1.9789 H       
  34 H34            3.0964     0.9639    -2.4124 H       
  35 H35            4.0158     4.8118    -0.8195 H       
  36 H36            6.3304     3.1766     0.7355 H       
  37 H37            5.6850     4.4307    -0.3504 H       
  38 H38            7.1344    -0.1650    -1.9118 H       
  39 H39            5.9722    -1.1103     2.0814 H       
  40 H40            3.0083     1.9231    -4.6786 H       
  41 H41            3.9374     5.7691    -3.0867 H       
  42 H42            6.1441     4.7397     2.6514 H       
  43 H43            7.4360    -1.4942     0.1389 H       
  44 H44            3.4296     4.3255    -5.0158 H       
  45 H45            7.5761     5.8262     0.3154 H       
  46 H46            7.8687     6.2394     1.8995 H       
  47 H47           -0.8460    -2.0034     0.3812 H       
  48 H48           -1.9625    -2.1124     1.7631 H       
  49 H49           -2.5755    -1.6467     0.1582 H       
@<TRIPOS>BOND
   1    1    2 ar
   2    1    3 ar
   3    1   28 1
   4    2    4 ar
   5    2   25 1
   6    3    5 ar
   7    3   29 1
   8    4    6 ar
   9    4   30 1
  10    5    6 ar
  11    5    7 1
  12    6   31 1
  13    7   10 1
  14    7    8 1
  15    7    9 1
  16    8   12 ar
  17    8   11 ar
  18    9   14 ar
  19    9   13 ar
  20   10   15 1
  21   11   16 ar
  22   11   32 1
  23   12   17 ar
  24   12   33 1
  25   13   18 ar
  26   13   34 1
  27   14   19 ar
  28   14   35 1
  29   15   20 1
  30   15   36 1
  31   15   37 1
  32   16   21 ar
  33   16   38 1
  34   17   21 ar
  35   17   39 1
  36   18   22 ar
  37   18   40 1
  38   19   22 ar
  39   19   41 1
  40   20   23 1
  41   20   24 1
  42   20   42 1
  43   21   43 1
  44   22   44 1
  45   23   45 1
  46   23   46 1
  47   25   26 2
  48   25   27 1
  49   27   47 1
  50   27   48 1
  51   27   49 1

#	End of record

