#	Name: ASD01910662
#	Creating user name:	WinNT
#	Creation time:	15. 06. 2019 19:56

#	Modifying user name:	WinNT
#	Modification time:	15. 06. 2019 19:56

#	Program:	/corina/corina34_cracker 3.40 0067  02.08.2006

@<TRIPOS>MOLECULE
ASD01910662
  32   34    0    0    0
SMALL
NO_CHARGES


@<TRIPOS>ATOM
   1 C1            -0.0167     1.3791     0.0096 C.ar    
   2 C2             0.0021    -0.0041     0.0020 C.ar    
   3 C3             1.2060    -0.6871    -0.0127 C.ar    
   4 C4             2.3972     0.0072    -0.0200 C.ar    
   5 C5             2.3877     1.4050    -0.0128 C.ar    
   6 C6             1.1677     2.0887     0.0021 C.ar    
   7 C7             3.6207     2.1331    -0.0198 C.1     
   8 C8             4.6316     2.7301    -0.0255 C.1     
   9 C9             5.8647     3.4582    -0.0325 C.ar    
  10 C10            5.8499     4.8581    -0.0253 C.ar    
  11 C11            7.0259     5.5489    -0.0317 C.ar    
  12 C12            8.2434     4.8581    -0.0449 C.ar    
  13 C13            8.2606     3.4631    -0.0527 C.ar    
  14 C14            7.0830     2.7694    -0.0407 C.ar    
  15 C15            7.0363     7.0548    -0.0254 C.3     
  16 C16            8.2356     7.5627     0.7716 C.3     
  17 N17            9.4717     6.9313     0.3177 N.am    
  18 C18            9.5000     5.6345    -0.0488 C.2     
  19 O19           10.5464     5.1105    -0.3784 O.2     
  20 Cl20           1.1425     3.8245     0.0105 Cl      
  21 H21           -0.9599     1.9051     0.0170 H       
  22 H22           -0.9275    -0.5539     0.0080 H       
  23 H23            1.2122    -1.7671    -0.0182 H       
  24 H24            3.3354    -0.5276    -0.0308 H       
  25 H25            4.9098     5.3896    -0.0150 H       
  26 H26            9.2015     2.9330    -0.0636 H       
  27 H27            7.0925     1.6894    -0.0466 H       
  28 H28            7.1013     7.4207    -1.0501 H       
  29 H29            6.1168     7.4213     0.4310 H       
  30 H30            8.3179     8.6423     0.6454 H       
  31 H31            8.0852     7.3371     1.8274 H       
  32 H32           10.2874     7.4548     0.2792 H       
@<TRIPOS>BOND
   1    1    2 ar
   2    1    6 ar
   3    1   21 1
   4    2    3 ar
   5    2   22 1
   6    3    4 ar
   7    3   23 1
   8    4    5 ar
   9    4   24 1
  10    5    6 ar
  11    5    7 1
  12    6   20 1
  13    7    8 3
  14    8    9 1
  15    9   10 ar
  16    9   14 ar
  17   10   11 ar
  18   10   25 1
  19   11   12 ar
  20   11   15 1
  21   12   13 ar
  22   12   18 1
  23   13   14 ar
  24   13   26 1
  25   14   27 1
  26   15   16 1
  27   15   28 1
  28   15   29 1
  29   16   17 1
  30   16   30 1
  31   16   31 1
  32   17   18 am
  33   17   32 1
  34   18   19 2

#	End of record

