#	Name: ASD01910013
#	Creating user name:	WinNT
#	Creation time:	15. 06. 2019 19:55

#	Modifying user name:	WinNT
#	Modification time:	15. 06. 2019 19:55

#	Program:	/corina/corina34_cracker 3.40 0067  02.08.2006

@<TRIPOS>MOLECULE
ASD01910013
  37   39    0    0    0
SMALL
NO_CHARGES


@<TRIPOS>ATOM
   1 C1            -0.4116     1.7413     0.1045 C.ar    
   2 C2            -0.5447     0.3911     0.3731 C.ar    
   3 N3             0.4982    -0.3393     0.7064 N.ar    
   4 C4             1.7163     0.1819     0.7995 C.ar    
   5 C5             1.9300     1.5328     0.5448 C.ar    
   6 C6             0.8465     2.3320     0.1894 C.ar    
   7 O7             1.0126     3.6544    -0.0677 O.3     
   8 C8             2.2643     4.1727     0.0388 C.ar    
   9 C9             3.1950     3.9767    -0.9714 C.ar    
  10 N10            4.4108     4.4767    -0.8736 N.ar    
  11 C11            4.7917     5.1773     0.1762 C.ar    
  12 C12            3.9196     5.4157     1.2255 C.ar    
  13 C13            2.6286     4.9121     1.1595 C.ar    
  14 C14           -1.9041    -0.2532     0.2832 C.3     
  15 C15            2.8576    -0.6831     1.1784 C.2     
  16 N16            2.6575    -1.9925     1.4268 N.am    
  17 O17            3.9744    -0.2120     1.2652 O.2     
  18 C18            3.7443    -2.8281     1.6800 C.ar    
  19 C19            3.5425    -4.1962     1.8201 C.ar    
  20 C20            4.6294    -5.0154     2.0708 C.ar    
  21 C21            5.8875    -4.4340     2.1733 C.ar    
  22 C22            6.0140    -3.0648     2.0227 C.ar    
  23 N23            4.9589    -2.3114     1.7793 N.ar    
  24 F24            6.9749    -5.1976     2.4177 F       
  25 F25            4.3194     6.1345     2.2973 F       
  26 H26           -1.2735     2.3303    -0.1724 H       
  27 H27            2.9210     1.9552     0.6216 H       
  28 H28            2.9203     3.4080    -1.8474 H       
  29 H29            5.7968     5.5702     0.2188 H       
  30 H30            1.9266     5.0819     1.9625 H       
  31 H31           -2.0650    -0.6221    -0.7297 H       
  32 H32           -1.9592    -1.0847     0.9858 H       
  33 H33           -2.6712     0.4813     0.5286 H       
  34 H34            1.7572    -2.3536     1.4295 H       
  35 H35            2.5504    -4.6145     1.7347 H       
  36 H36            4.5028    -6.0819     2.1845 H       
  37 H37            6.9892    -2.6074     2.1013 H       
@<TRIPOS>BOND
   1    1    2 ar
   2    1    6 ar
   3    1   26 1
   4    2    3 ar
   5    2   14 1
   6    3    4 ar
   7    4    5 ar
   8    4   15 1
   9    5    6 ar
  10    5   27 1
  11    6    7 1
  12    7    8 1
  13    8    9 ar
  14    8   13 ar
  15    9   10 ar
  16    9   28 1
  17   10   11 ar
  18   11   12 ar
  19   11   29 1
  20   12   13 ar
  21   12   25 1
  22   13   30 1
  23   14   31 1
  24   14   32 1
  25   14   33 1
  26   15   16 am
  27   15   17 2
  28   16   18 1
  29   16   34 1
  30   18   19 ar
  31   18   23 ar
  32   19   20 ar
  33   19   35 1
  34   20   21 ar
  35   20   36 1
  36   21   22 ar
  37   21   24 1
  38   22   23 ar
  39   22   37 1

#	End of record

