#	Name: ASD01150770
#	Creating user name:	WinNT
#	Creation time:	15. 06. 2019 19:05

#	Modifying user name:	WinNT
#	Modification time:	15. 06. 2019 19:05

#	Program:	/corina/corina34_cracker 3.40 0067  02.08.2006

@<TRIPOS>MOLECULE
ASD01150770
  53   56    0    0    0
SMALL
NO_CHARGES


@<TRIPOS>ATOM
   1 C1            -0.0033     1.4276     0.0439 C.2     
   2 C2            -0.5043     1.0184    -1.3173 C.3     
   3 F3            -1.6227     0.1905    -1.1730 F       
   4 F4            -0.8591     2.1588    -2.0459 F       
   5 F5             0.5040     0.3260    -1.9965 F       
   6 N6             3.5643     2.3087     0.4751 N.ar    
   7 C7             2.4627     1.6140     0.3646 C.ar    
   8 C8             1.2155     2.2339     0.1647 C.ar    
   9 C9             1.1524     3.6371     0.0816 C.ar    
  10 C10            2.3654     4.3594     0.2056 C.ar    
  11 C11            2.3849     5.7579     0.1333 C.ar    
  12 C12            3.5848     6.4278     0.2580 C.ar    
  13 C13            4.7749     5.7197     0.4551 C.ar    
  14 C14            4.7773     4.3609     0.5281 C.ar    
  15 C15            3.5736     3.6472     0.4053 C.ar    
  16 C16            2.5301     0.1111     0.4529 C.3     
  17 C17           -0.1333     4.3330    -0.1280 C.ar    
  18 C18           -1.1312     4.2714     0.8479 C.ar    
  19 C19           -2.3290     4.9232     0.6471 C.ar    
  20 C20           -2.5445     5.6391    -0.5206 C.ar    
  21 C21           -1.5579     5.7034    -1.4928 C.ar    
  22 C22           -0.3540     5.0603    -1.3003 C.ar    
  23 F23           -3.7204     6.2761    -0.7122 F       
  24 N24            3.6112     7.8221     0.1864 N.3     
  25 C25            4.9138     8.3067     0.3348 C.3     
  26 C26            4.9395     9.8435     0.4852 C.3     
  27 C27            4.7457    10.4734    -0.8706 C.3     
  28 C28            3.2674    10.7928    -1.1699 C.3     
  29 C29            2.3301     9.6630    -0.7103 C.3     
  30 C30            2.9059     8.3035    -1.0179 C.3     
  31 O31           -0.6112     1.0942     1.0394 O.2     
  32 H32            1.4680     6.3077    -0.0191 H       
  33 H33            5.7055     6.2594     0.5503 H       
  34 H34            5.7056     3.8306     0.6807 H       
  35 H35            2.4891    -0.1936     1.4986 H       
  36 H36            1.6873    -0.3227    -0.0852 H       
  37 H37            3.4627    -0.2374     0.0092 H       
  38 H38           -0.9646     3.7138     1.7577 H       
  39 H39           -3.1013     4.8760     1.4006 H       
  40 H40           -1.7314     6.2619    -2.4007 H       
  41 H41            0.4154     5.1147    -2.0562 H       
  42 H42            5.3620     7.8555     1.2200 H       
  43 H43            5.4993     8.0256    -0.5406 H       
  44 H44            4.1365    10.1581     1.1517 H       
  45 H45            5.8998    10.1535     0.8974 H       
  46 H46            5.3218    11.3976    -0.9152 H       
  47 H47            5.1198     9.7903    -1.6331 H       
  48 H48            2.9923    11.7132    -0.6549 H       
  49 H49            3.1466    10.9391    -2.2432 H       
  50 H50            2.1718     9.7473     0.3649 H       
  51 H51            1.3716     9.7669    -1.2189 H       
  52 H52            3.6067     8.3799    -1.8493 H       
  53 H53            2.1026     7.6130    -1.2749 H       
@<TRIPOS>BOND
   1    1    2 1
   2    1    8 1
   3    1   31 2
   4    2    3 1
   5    2    4 1
   6    2    5 1
   7    6    7 ar
   8    6   15 ar
   9    7    8 ar
  10    7   16 1
  11    8    9 ar
  12    9   10 ar
  13    9   17 1
  14   10   11 ar
  15   10   15 ar
  16   11   12 ar
  17   11   32 1
  18   12   13 ar
  19   12   24 1
  20   13   14 ar
  21   13   33 1
  22   14   15 ar
  23   14   34 1
  24   16   35 1
  25   16   36 1
  26   16   37 1
  27   17   18 ar
  28   17   22 ar
  29   18   19 ar
  30   18   38 1
  31   19   20 ar
  32   19   39 1
  33   20   21 ar
  34   20   23 1
  35   21   22 ar
  36   21   40 1
  37   22   41 1
  38   24   25 1
  39   24   30 1
  40   25   26 1
  41   25   42 1
  42   25   43 1
  43   26   27 1
  44   26   44 1
  45   26   45 1
  46   27   28 1
  47   27   46 1
  48   27   47 1
  49   28   29 1
  50   28   48 1
  51   28   49 1
  52   29   30 1
  53   29   50 1
  54   29   51 1
  55   30   52 1
  56   30   53 1

#	End of record

