#	Name: ASD02508126
#	Creating user name:	WinNT
#	Creation time:	15. 06. 2019 20:23

#	Modifying user name:	WinNT
#	Modification time:	15. 06. 2019 20:23

#	Program:	/corina/corina34_cracker 3.40 0067  02.08.2006

@<TRIPOS>MOLECULE
ASD02508126
  33   35    0    0    0
SMALL
NO_CHARGES


@<TRIPOS>ATOM
   1 C1             0.0878     1.7440     0.3866 C.ar    
   2 C2             0.0125     0.3629     0.3031 C.ar    
   3 C3             1.3296     2.3789     0.3523 C.ar    
   4 C4             2.4849     1.6229     0.2349 C.ar    
   5 C5             2.4021     0.2462     0.1525 C.ar    
   6 C6             1.1700    -0.3825     0.1859 C.ar    
   7 N7            -0.8710     2.7501     0.5028 N.am    
   8 C8            -0.2186     3.9289     0.5410 C.2     
   9 O9             1.1029     3.7118     0.4502 O.3     
  10 S10            3.8723    -0.7133     0.0026 S.o2    
  11 N11            4.3766    -1.0803     1.5367 N.am    
  12 C12            3.5472    -1.8158     2.3876 C.ar    
  13 O13           -0.7459     5.0203     0.6382 O.2     
  14 C14           -2.3220     2.5604     0.5703 C.3     
  15 O15            3.4897    -1.9425    -0.5989 O.2     
  16 O16            4.8590     0.1479    -0.5488 O.2     
  17 C17            3.5235    -1.5373     3.7496 C.ar    
  18 C18            2.7406    -2.8225     1.8741 C.ar    
  19 C19            1.9213    -3.5475     2.7180 C.ar    
  20 C20            1.9037    -3.2719     4.0726 C.ar    
  21 C21            2.7017    -2.2664     4.5876 C.ar    
  22 Cl22           4.5253    -0.2757     4.3964 Cl      
  23 H23           -0.9483    -0.1295     0.3298 H       
  24 H24            3.4488     2.1092     0.2076 H       
  25 H25            1.1128    -1.4591     0.1210 H       
  26 H26            5.2477    -0.7848     1.8446 H       
  27 H27           -2.6258     2.4486     1.6112 H       
  28 H28           -2.8223     3.4264     0.1369 H       
  29 H29           -2.5977     1.6650     0.0132 H       
  30 H30            2.7533    -3.0384     0.8160 H       
  31 H31            1.2936    -4.3304     2.3187 H       
  32 H32            1.2620    -3.8401     4.7296 H       
  33 H33            2.6858    -2.0539     5.6463 H       
@<TRIPOS>BOND
   1    1    2 ar
   2    1    3 ar
   3    1    7 1
   4    2    6 ar
   5    2   23 1
   6    3    4 ar
   7    3    9 1
   8    4    5 ar
   9    4   24 1
  10    5    6 ar
  11    5   10 1
  12    6   25 1
  13    7    8 am
  14    7   14 1
  15    8    9 1
  16    8   13 2
  17   10   11 am
  18   10   15 2
  19   10   16 2
  20   11   12 1
  21   11   26 1
  22   12   17 ar
  23   12   18 ar
  24   14   27 1
  25   14   28 1
  26   14   29 1
  27   17   22 1
  28   17   21 ar
  29   18   19 ar
  30   18   30 1
  31   19   20 ar
  32   19   31 1
  33   20   21 ar
  34   20   32 1
  35   21   33 1

#	End of record

