#	Name: ASD02408138
#	Creating user name:	WinNT
#	Creation time:	15. 06. 2019 20:21

#	Modifying user name:	WinNT
#	Modification time:	15. 06. 2019 20:21

#	Program:	/corina/corina34_cracker 3.40 0067  02.08.2006

@<TRIPOS>MOLECULE
ASD02408138
  59   61    0    0    0
SMALL
NO_CHARGES


@<TRIPOS>ATOM
   1 C1             0.3838     1.2173    -0.3456 C.ar    
   2 C2             0.5799    -0.1284    -0.5925 C.ar    
   3 C3             1.4704     2.0503    -0.1531 C.ar    
   4 C4             2.7526     1.5374    -0.2076 C.ar    
   5 C5             2.9487     0.1912    -0.4541 C.ar    
   6 C6             1.8626    -0.6415    -0.6470 C.ar    
   7 C7             1.2566     3.5176     0.1157 C.3     
   8 C8             1.0168     3.7289     1.5884 C.2     
   9 N9             0.8021     4.9796     2.0404 N.am    
  10 N10            1.0188     2.6932     2.3830 N.2     
  11 C11            0.8111     2.8205     3.6997 C.2     
  12 C12            0.5857     4.0977     4.2394 C.2     
  13 C13            0.5836     5.2052     3.3530 C.2     
  14 N14            0.8178     1.7144     4.5137 N.pl3   
  15 C15            1.2903     1.6778     5.9097 C.3     
  16 O16            0.3931     6.3354     3.7679 O.2     
  17 C17            1.6740     0.1980     6.1597 C.3     
  18 C18            0.5761    -0.5485     5.3569 C.3     
  19 C19            0.3491     0.3722     4.1392 C.3     
  20 C20           -1.1394     0.4124     3.7875 C.3     
  21 O21           -1.8934     0.7703     4.9474 O.3     
  22 C22           -1.0141     1.7777    -0.2924 C.3     
  23 N23           -1.3284     2.4317    -1.5697 N.3     
  24 C24           -1.3861     1.4518    -2.6626 C.3     
  25 C25           -2.5820     3.1918    -1.4774 C.3     
  26 C26           -2.3336     4.4945    -0.7143 C.3     
  27 O27           -1.4172     5.3091    -1.4482 O.3     
  28 C28           -1.1156     6.5562    -0.8191 C.3     
  29 C29            0.3594     4.2758     5.6422 C.1     
  30 N30            0.1800     4.4171     6.7550 N.1     
  31 H31           -0.2689    -0.7792    -0.7425 H       
  32 H32            3.6014     2.1882    -0.0579 H       
  33 H33            3.9507    -0.2095    -0.4974 H       
  34 H34            2.0158    -1.6932    -0.8392 H       
  35 H35            2.1406     4.0760    -0.1923 H       
  36 H36            0.3913     3.8678    -0.4472 H       
  37 H37            0.8050     5.7235     1.4179 H       
  38 H38            2.1613     2.3215     6.0324 H       
  39 H39            0.4935     1.9829     6.5880 H       
  40 H40            2.6653    -0.0210     5.7627 H       
  41 H41            1.6169    -0.0466     7.2204 H       
  42 H42            0.9295    -1.5299     5.0406 H       
  43 H43           -0.3379    -0.6374     5.9442 H       
  44 H44            0.9237     0.0086     3.2873 H       
  45 H45           -1.3075     1.1502     3.0029 H       
  46 H46           -1.4565    -0.5697     3.4367 H       
  47 H47           -2.8477     0.8152     4.7978 H       
  48 H48           -1.7231     0.9693    -0.1139 H       
  49 H49           -1.0829     2.5063     0.5154 H       
  50 H50           -2.0868     0.6583    -2.4025 H       
  51 H51           -1.7187     1.9452    -3.5758 H       
  52 H52           -0.3958     1.0247    -2.8203 H       
  53 H53           -2.9425     3.4213    -2.4802 H       
  54 H54           -3.3288     2.5984    -0.9498 H       
  55 H55           -3.2758     5.0285    -0.5907 H       
  56 H56           -1.9135     4.2672     0.2654 H       
  57 H57           -0.4141     7.1152    -1.4383 H       
  58 H58           -2.0325     7.1330    -0.6976 H       
  59 H59           -0.6702     6.3717     0.1585 H       
@<TRIPOS>BOND
   1    1    2 ar
   2    1    3 ar
   3    1   22 1
   4    2    6 ar
   5    2   31 1
   6    3    4 ar
   7    3    7 1
   8    4    5 ar
   9    4   32 1
  10    5    6 ar
  11    5   33 1
  12    6   34 1
  13    7    8 1
  14    7   35 1
  15    7   36 1
  16    8    9 1
  17    8   10 2
  18    9   13 am
  19    9   37 1
  20   10   11 1
  21   11   12 2
  22   11   14 1
  23   12   13 1
  24   12   29 1
  25   13   16 2
  26   14   15 1
  27   14   19 1
  28   15   17 1
  29   15   38 1
  30   15   39 1
  31   17   18 1
  32   17   40 1
  33   17   41 1
  34   18   19 1
  35   18   42 1
  36   18   43 1
  37   19   20 1
  38   19   44 1
  39   20   21 1
  40   20   45 1
  41   20   46 1
  42   21   47 1
  43   22   23 1
  44   22   48 1
  45   22   49 1
  46   23   24 1
  47   23   25 1
  48   24   50 1
  49   24   51 1
  50   24   52 1
  51   25   26 1
  52   25   53 1
  53   25   54 1
  54   26   27 1
  55   26   55 1
  56   26   56 1
  57   27   28 1
  58   28   57 1
  59   28   58 1
  60   28   59 1
  61   29   30 3

#	End of record

