#	Name: ASD01911196
#	Creating user name:	WinNT
#	Creation time:	15. 06. 2019 19:57

#	Modifying user name:	WinNT
#	Modification time:	15. 06. 2019 19:57

#	Program:	/corina/corina34_cracker 3.40 0067  02.08.2006

@<TRIPOS>MOLECULE
ASD01911196
  45   47    0    0    0
SMALL
NO_CHARGES


@<TRIPOS>ATOM
   1 C1             0.0020     1.3105    -0.0413 C.ar    
   2 N2             0.0100    -0.0042    -0.0155 N.ar    
   3 C3             1.0065    -0.6839     0.5388 C.ar    
   4 C4             2.0841    -0.0162     1.1159 C.ar    
   5 C5             2.1023     1.3699     1.1033 C.ar    
   6 C6             1.0418     2.0396     0.5138 C.ar    
   7 C7             0.9720    -2.1648     0.5441 C.2     
   8 N8            -0.0682    -2.8166    -0.0124 N.am    
   9 C9            -0.0465    -4.2114    -0.1129 C.ar    
  10 C10           -1.2256    -4.9357     0.0034 C.ar    
  11 C11           -1.2012    -6.3131    -0.0967 C.ar    
  12 C12           -0.0036    -6.9712    -0.3128 C.ar    
  13 C13            1.1730    -6.2520    -0.4287 C.ar    
  14 C14            1.1538    -4.8745    -0.3351 C.ar    
  15 C15           -2.5304    -4.2197     0.2393 C.3     
  16 N16           -3.0289    -3.6825    -1.0292 N.am    
  17 O17            1.8816    -2.7920     1.0502 O.2     
  18 Br18           0.0256    -8.8570    -0.4493 Br      
  19 C19           -4.1897    -2.9984    -1.0617 C.2     
  20 C20           -4.6928    -2.4563    -2.3418 C.ar    
  21 C21           -5.8944    -1.7475    -2.3789 C.ar    
  22 C22           -6.3580    -1.2438    -3.5768 C.ar    
  23 C23           -5.6348    -1.4404    -4.7396 C.ar    
  24 C24           -4.4426    -2.1423    -4.7098 C.ar    
  25 C25           -3.9650    -2.6462    -3.5178 C.ar    
  26 O26           -4.8231    -2.8272    -0.0384 O.2     
  27 C27           -6.6841    -1.5332    -1.1134 C.3     
  28 F28           -7.8406    -0.8015    -1.4036 F       
  29 F29           -7.0403    -2.7724    -0.5705 F       
  30 F30           -5.9044    -0.8269    -0.1912 F       
  31 H31           -0.8240     1.8291    -0.5052 H       
  32 H32            2.8938    -0.5704     1.5672 H       
  33 H33            2.9240     1.9154     1.5432 H       
  34 H34            1.0258     3.1191     0.4871 H       
  35 H35           -0.8318    -2.3183    -0.3432 H       
  36 H36           -2.1179    -6.8769    -0.0059 H       
  37 H37            2.1066    -6.7684    -0.5967 H       
  38 H38            2.0723    -4.3137    -0.4260 H       
  39 H39           -3.2595    -4.9185     0.6494 H       
  40 H40           -2.3743    -3.4025     0.9436 H       
  41 H41           -2.5235    -3.8191    -1.8458 H       
  42 H42           -7.2878    -0.6951    -3.6069 H       
  43 H43           -6.0024    -1.0447    -5.6748 H       
  44 H44           -3.8829    -2.2927    -5.6211 H       
  45 H45           -3.0342    -3.1935    -3.4958 H       
@<TRIPOS>BOND
   1    1    2 ar
   2    1    6 ar
   3    1   31 1
   4    2    3 ar
   5    3    4 ar
   6    3    7 1
   7    4    5 ar
   8    4   32 1
   9    5    6 ar
  10    5   33 1
  11    6   34 1
  12    7    8 am
  13    7   17 2
  14    8    9 1
  15    8   35 1
  16    9   10 ar
  17    9   14 ar
  18   10   11 ar
  19   10   15 1
  20   11   12 ar
  21   11   36 1
  22   12   13 ar
  23   12   18 1
  24   13   14 ar
  25   13   37 1
  26   14   38 1
  27   15   16 1
  28   15   39 1
  29   15   40 1
  30   16   19 am
  31   16   41 1
  32   19   20 1
  33   19   26 2
  34   20   21 ar
  35   20   25 ar
  36   21   22 ar
  37   21   27 1
  38   22   23 ar
  39   22   42 1
  40   23   24 ar
  41   23   43 1
  42   24   25 ar
  43   24   44 1
  44   25   45 1
  45   27   28 1
  46   27   29 1
  47   27   30 1

#	End of record

