#	Name: ASD02198322
#	Creating user name:	WinNT
#	Creation time:	15. 06. 2019 20:19

#	Modifying user name:	WinNT
#	Modification time:	15. 06. 2019 20:19

#	Program:	/corina/corina34_cracker 3.40 0067  02.08.2006

@<TRIPOS>MOLECULE
ASD02198322
  49   52    0    0    0
SMALL
NO_CHARGES


@<TRIPOS>ATOM
   1 C1             0.6908     2.4012     2.9079 C.2     
   2 C2             0.5084     1.1298     3.4187 C.2     
   3 S3             1.9808     2.3173     1.7110 S.3     
   4 C4             2.1554     0.6410     1.9922 C.2     
   5 N5             1.3128     0.2332     2.8972 N.2     
   6 N6            -0.4340     0.8302     4.3898 N.pl3   
   7 C7            -0.0291     3.5547     3.2738 C.2     
   8 C8             0.3875     4.8786     2.7647 C.ar    
   9 O9            -0.9964     3.4617     4.0108 O.2     
  10 N10            3.0646    -0.1690     1.3491 N.pl3   
  11 C11           -0.5113     5.9476     2.7760 C.ar    
  12 C12            1.6828     5.0650     2.2765 C.ar    
  13 C13            2.0673     6.3000     1.8029 C.ar    
  14 C14            1.1684     7.3597     1.8105 C.ar    
  15 C15           -0.1194     7.1796     2.3007 C.ar    
  16 O16            1.5512     8.5755     1.3433 O.3     
  17 C17            0.5773     9.6206     1.3801 C.3     
  18 C18            3.0356    -1.5536     1.5532 C.ar    
  19 C19            1.8558    -2.1736     1.9438 C.ar    
  20 C20            1.8278    -3.5395     2.1444 C.ar    
  21 C21            2.9778    -4.2924     1.9559 C.ar    
  22 C22            4.1569    -3.6736     1.5661 C.ar    
  23 C23            4.1850    -2.3087     1.3596 C.ar    
  24 O24            2.9494    -5.6373     2.1536 O.3     
  25 C25            2.9849    -6.0949     3.4326 C.ar    
  26 C26            2.9474    -5.1999     4.4923 C.ar    
  27 C27            3.0528    -7.4584     3.6813 C.ar    
  28 C28            3.0882    -7.9209     4.9824 C.ar    
  29 C29            3.0561    -7.0267     6.0365 C.ar    
  30 C30            2.9831    -5.6678     5.7915 C.ar    
  31 H31           -1.0051     1.5299     4.7437 H       
  32 H32           -0.5226    -0.0792     4.7156 H       
  33 H33            3.7252     0.2199     0.7547 H       
  34 H34           -1.5123     5.8083     3.1565 H       
  35 H35            2.3820     4.2419     2.2707 H       
  36 H36            3.0688     6.4449     1.4256 H       
  37 H37           -0.8152     8.0055     2.3050 H       
  38 H38           -0.2858     9.3343     0.7791 H       
  39 H39            0.2631     9.7883     2.4103 H       
  40 H40            1.0117    10.5363     0.9791 H       
  41 H41            0.9606    -1.5876     2.0909 H       
  42 H42            0.9105    -4.0217     2.4485 H       
  43 H43            5.0518    -4.2603     1.4199 H       
  44 H44            5.1028    -1.8271     1.0558 H       
  45 H45            2.8908    -4.1384     4.3015 H       
  46 H46            3.0776    -8.1573     2.8583 H       
  47 H47            3.1407    -8.9821     5.1765 H       
  48 H48            3.0835    -7.3904     7.0530 H       
  49 H49            2.9585    -4.9714     6.6166 H       
@<TRIPOS>BOND
   1    1    2 2
   2    1    3 1
   3    1    7 1
   4    2    6 1
   5    2    5 1
   6    3    4 1
   7    4    5 2
   8    4   10 1
   9    6   31 1
  10    6   32 1
  11    7    8 1
  12    7    9 2
  13    8   11 ar
  14    8   12 ar
  15   10   18 1
  16   10   33 1
  17   11   15 ar
  18   11   34 1
  19   12   13 ar
  20   12   35 1
  21   13   14 ar
  22   13   36 1
  23   14   15 ar
  24   14   16 1
  25   15   37 1
  26   16   17 1
  27   17   38 1
  28   17   39 1
  29   17   40 1
  30   18   19 ar
  31   18   23 ar
  32   19   20 ar
  33   19   41 1
  34   20   21 ar
  35   20   42 1
  36   21   22 ar
  37   21   24 1
  38   22   23 ar
  39   22   43 1
  40   23   44 1
  41   24   25 1
  42   25   26 ar
  43   25   27 ar
  44   26   30 ar
  45   26   45 1
  46   27   28 ar
  47   27   46 1
  48   28   29 ar
  49   28   47 1
  50   29   30 ar
  51   29   48 1
  52   30   49 1

#	End of record

