#	Name: ASD03730194
#	Creating user name:	WinNT
#	Creation time:	15. 06. 2019 20:44

#	Modifying user name:	WinNT
#	Modification time:	15. 06. 2019 20:44

#	Program:	/corina/corina34_cracker 3.40 0067  02.08.2006

@<TRIPOS>MOLECULE
ASD03730194
  55   60    0    0    0
SMALL
NO_CHARGES


@<TRIPOS>ATOM
   1 C1            -0.0187     1.5021     0.0185 C.2     
   2 C2             0.0011    -0.0045    -0.0114 C.3     
   3 O3             1.0236     2.1220     0.0366 O.2     
   4 N4            -1.1946     2.1607     0.0195 N.am    
   5 O5             5.6394    -1.2403     1.4389 O.3     
   6 C6             4.5683    -0.3015     1.2252 C.3     
   7 C7             3.4546    -1.1897     0.6537 C.3     
   8 C8             3.8037    -2.5580     1.1749 C.ar    
   9 C9             5.1192    -2.4854     1.6293 C.ar    
  10 C10            5.7070    -3.6192     2.1857 C.ar    
  11 C11            5.0023    -4.7988     2.2764 C.ar    
  12 C12            3.6903    -4.8682     1.8117 C.ar    
  13 C13            3.0960    -3.7342     1.2592 C.ar    
  14 N14            1.3886    -0.4747    -0.0131 N.am    
  15 C15            2.0948    -0.7389     1.1043 C.2     
  16 C16            3.4131    -1.1424    -0.8447 C.ar    
  17 C17            4.3290    -1.4310    -1.8317 C.ar    
  18 C18            3.9827    -1.2842    -3.1631 C.ar    
  19 C19            2.7147    -0.8468    -3.5004 C.ar    
  20 C20            1.7939    -0.5560    -2.5156 C.ar    
  21 C21            2.1336    -0.7014    -1.1728 C.ar    
  22 C22            1.6190    -6.2161     1.4415 C.ar    
  23 C23            2.9313    -6.1396     1.9042 C.ar    
  24 C24            3.5207    -7.2799     2.4563 C.ar    
  25 C25            2.7704    -8.4418     2.5194 C.ar    
  26 C26            1.4740    -8.4368     2.0387 C.ar    
  27 N27            0.9443    -7.3444     1.5227 N.ar    
  28 O28            1.7078    -0.6337     2.2489 O.2     
  29 C29           -1.2153     3.5564     0.1329 C.ar    
  30 C30           -2.3326     4.1965     0.6587 C.ar    
  31 C31           -2.3489     5.5747     0.7689 C.ar    
  32 C32           -1.2559     6.3153     0.3567 C.ar    
  33 C33           -0.1445     5.6810    -0.1662 C.ar    
  34 C34           -0.1190     4.3036    -0.2739 C.ar    
  35 F35           -3.4003     3.4729     1.0609 F       
  36 H36           -0.5129    -0.3921     0.8682 H       
  37 H37           -0.5030    -0.3567    -0.9114 H       
  38 H38           -2.0265     1.6680    -0.0584 H       
  39 H39            4.2572     0.1513     2.1667 H       
  40 H40            4.8615     0.4626     0.5054 H       
  41 H41            6.7232    -3.5728     2.5483 H       
  42 H42            5.4676    -5.6724     2.7085 H       
  43 H43            2.0796    -3.7797     0.8971 H       
  44 H44            5.3188    -1.7719    -1.5662 H       
  45 H45            4.7009    -1.5104    -3.9373 H       
  46 H46            2.4445    -0.7321    -4.5397 H       
  47 H47            0.8058    -0.2144    -2.7867 H       
  48 H48            1.1495    -5.3412     1.0165 H       
  49 H49            4.5359    -7.2556     2.8241 H       
  50 H50            3.1934    -9.3425     2.9394 H       
  51 H51            0.8860    -9.3415     2.0860 H       
  52 H52           -3.2158     6.0733     1.1767 H       
  53 H53           -1.2709     7.3917     0.4433 H       
  54 H54            0.7070     6.2627    -0.4870 H       
  55 H55            0.7519     3.8092    -0.6783 H       
@<TRIPOS>BOND
   1    1    2 1
   2    1    3 2
   3    1    4 am
   4    2   14 1
   5    2   36 1
   6    2   37 1
   7    4   29 1
   8    4   38 1
   9    5    6 1
  10    5    9 1
  11    6    7 1
  12    6   39 1
  13    6   40 1
  14    7    8 1
  15    7   15 1
  16    7   16 1
  17    8    9 ar
  18    8   13 ar
  19    9   10 ar
  20   10   11 ar
  21   10   41 1
  22   11   12 ar
  23   11   42 1
  24   12   13 ar
  25   12   23 1
  26   13   43 1
  27   14   15 am
  28   14   21 1
  29   15   28 2
  30   16   17 ar
  31   16   21 ar
  32   17   18 ar
  33   17   44 1
  34   18   19 ar
  35   18   45 1
  36   19   20 ar
  37   19   46 1
  38   20   21 ar
  39   20   47 1
  40   22   23 ar
  41   22   27 ar
  42   22   48 1
  43   23   24 ar
  44   24   25 ar
  45   24   49 1
  46   25   26 ar
  47   25   50 1
  48   26   27 ar
  49   26   51 1
  50   29   30 ar
  51   29   34 ar
  52   30   31 ar
  53   30   35 1
  54   31   32 ar
  55   31   52 1
  56   32   33 ar
  57   32   53 1
  58   33   34 ar
  59   33   54 1
  60   34   55 1

#	End of record

