#	Name: ASD05380138
#	Creating user name:	WinNT
#	Creation time:	15. 06. 2019 20:59

#	Modifying user name:	WinNT
#	Modification time:	15. 06. 2019 20:59

#	Program:	/corina/corina34_cracker 3.40 0067  02.08.2006

@<TRIPOS>MOLECULE
ASD05380138
  70   74    0    0    0
SMALL
NO_CHARGES


@<TRIPOS>ATOM
   1 C1             0.2238     0.7502    -0.0614 C.ar    
   2 C2             0.0907    -0.5946    -0.4727 C.ar    
   3 C3             1.4902     1.3099     0.0965 C.ar    
   4 C4             2.6071     0.5425    -0.1513 C.ar    
   5 C5             2.4799    -0.7801    -0.5558 C.ar    
   6 C6             1.2381    -1.3519    -0.7177 C.ar    
   7 N7            -1.1520    -1.1183    -0.6192 N.2     
   8 C8            -2.2187    -0.4142    -0.3910 C.2     
   9 N9            -2.1849     0.8864     0.0073 N.am    
  10 C10           -1.0030     1.5188     0.1943 C.2     
  11 C11           -3.3838     1.5751     0.2313 C.ar    
  12 C12           -4.1806     1.2485     1.3207 C.ar    
  13 C13           -5.7518     2.9359     0.6742 C.ar    
  14 C14           -3.5624    -1.0705    -0.5771 C.3     
  15 O15           -4.1653    -0.5889    -1.7799 O.3     
  16 C16           -5.5182    -0.6168    -1.8436 C.ar    
  17 N17           -6.2391    -0.9989    -0.7971 N.ar    
  18 O18           -0.9577     2.6819     0.5504 O.2     
  19 C19           -6.1893    -0.2366    -3.0158 C.ar    
  20 C20           -7.5943    -0.2862    -3.0223 C.ar    
  21 N21           -8.2310    -0.6878    -1.9277 N.ar    
  22 C22           -7.5587    -1.0296    -0.8490 C.ar    
  23 N23           -5.8000     0.2003    -4.2379 N.2     
  24 C24           -6.8502     0.4165    -4.9754 C.2     
  25 N25           -7.9815     0.1311    -4.2707 N.pl3   
  26 C26           -5.3620     1.9298     1.5391 C.ar    
  27 C27           -4.9576     3.2673    -0.4083 C.ar    
  28 C28           -3.7751     2.5897    -0.6322 C.ar    
  29 C29            1.6369     2.7443     0.5346 C.3     
  30 C30           -9.3584     0.2476    -4.7573 C.3     
  31 O31           -9.3483     0.7146    -6.1079 O.3     
  32 C32          -10.6488     0.8638    -6.6809 C.3     
  33 C33          -10.5174     1.3660    -8.1202 C.3     
  34 Si34         -12.2129     1.5605    -8.8673 Si      
  35 C35          -13.1946     2.7889    -7.8682 C.3     
  36 C36          -12.0528     2.1719   -10.6198 C.3     
  37 C37          -13.0868    -0.0848    -8.8610 C.3     
  38 C38           -3.3809    -2.5869    -0.6694 C.3     
  39 H39            3.5901     0.9731    -0.0303 H       
  40 H40            3.3662    -1.3673    -0.7457 H       
  41 H41            1.1517    -2.3814    -1.0327 H       
  42 H42           -3.8771     0.4624     1.9961 H       
  43 H43           -6.6762     3.4670     0.8469 H       
  44 H44           -4.2038    -0.8324     0.2714 H       
  45 H45           -8.1063    -1.3471     0.0261 H       
  46 H46           -6.8286     0.7706    -5.9954 H       
  47 H47           -5.9822     1.6764     2.3862 H       
  48 H48           -5.2648     4.0533    -1.0822 H       
  49 H49           -3.1553     2.8490    -1.4778 H       
  50 H50            1.5741     2.8005     1.6213 H       
  51 H51            2.6030     3.1275     0.2061 H       
  52 H52            0.8397     3.3424     0.0931 H       
  53 H53           -9.8429    -0.7278    -4.7138 H       
  54 H54           -9.9059     0.9536    -4.1329 H       
  55 H55          -11.1601    -0.0988    -6.6773 H       
  56 H56          -11.2232     1.5825    -6.0964 H       
  57 H57          -10.0061     2.3286    -8.1239 H       
  58 H58           -9.9430     0.6473    -8.7047 H       
  59 H59          -12.6833     3.7515    -7.8719 H       
  60 H60          -14.1866     2.9027    -8.3054 H       
  61 H61          -13.2882     2.4311    -6.8429 H       
  62 H62          -11.4785     1.4532   -11.2044 H       
  63 H63          -13.0448     2.2857   -11.0570 H       
  64 H64          -11.5416     3.1346   -10.6235 H       
  65 H65          -13.1804    -0.4426    -7.8357 H       
  66 H66          -14.0788     0.0290    -9.2982 H       
  67 H67          -12.5124    -0.8035    -9.4456 H       
  68 H68           -2.9210    -2.9543     0.2480 H       
  69 H69           -4.3528    -3.0617    -0.8040 H       
  70 H70           -2.7395    -2.8251    -1.5179 H       
@<TRIPOS>BOND
   1    1    2 ar
   2    1    3 ar
   3    1   10 1
   4    2    7 1
   5    2    6 ar
   6    3    4 ar
   7    3   29 1
   8    4    5 ar
   9    4   39 1
  10    5    6 ar
  11    5   40 1
  12    6   41 1
  13    7    8 2
  14    8    9 1
  15    8   14 1
  16    9   10 am
  17    9   11 1
  18   10   18 2
  19   11   12 ar
  20   11   28 ar
  21   12   26 ar
  22   12   42 1
  23   13   26 ar
  24   13   27 ar
  25   13   43 1
  26   14   15 1
  27   14   38 1
  28   14   44 1
  29   15   16 1
  30   16   17 ar
  31   16   19 ar
  32   17   22 ar
  33   19   20 ar
  34   19   23 1
  35   20   21 ar
  36   20   25 1
  37   21   22 ar
  38   22   45 1
  39   23   24 2
  40   24   25 1
  41   24   46 1
  42   25   30 1
  43   26   47 1
  44   27   28 ar
  45   27   48 1
  46   28   49 1
  47   29   50 1
  48   29   51 1
  49   29   52 1
  50   30   31 1
  51   30   53 1
  52   30   54 1
  53   31   32 1
  54   32   33 1
  55   32   55 1
  56   32   56 1
  57   33   34 1
  58   33   57 1
  59   33   58 1
  60   34   35 1
  61   34   36 1
  62   34   37 1
  63   35   59 1
  64   35   60 1
  65   35   61 1
  66   36   62 1
  67   36   63 1
  68   36   64 1
  69   37   65 1
  70   37   66 1
  71   37   67 1
  72   38   68 1
  73   38   69 1
  74   38   70 1

#	End of record

