#	Name: ASD00191029
#	Creating user name:	WinNT
#	Creation time:	15. 06. 2019 18:33

#	Modifying user name:	WinNT
#	Modification time:	15. 06. 2019 18:33

#	Program:	/corina/corina34_cracker 3.40 0067  02.08.2006

@<TRIPOS>MOLECULE
ASD00191029
  46   50    0    0    0
SMALL
NO_CHARGES


@<TRIPOS>ATOM
   1 C1            -0.0142     1.3575     0.0068 C.ar    
   2 C2             0.0050    -0.0052    -0.0082 C.ar    
   3 C3             1.2069    -0.7047    -0.0373 C.ar    
   4 C4             2.3991    -0.0413    -0.0520 C.ar    
   5 C5             2.4138     1.3571    -0.0377 C.ar    
   6 C6             1.1926     2.0734    -0.0076 C.ar    
   7 C7             3.6589     2.1125    -0.0530 C.ar    
   8 C8             3.5789     3.5086    -0.0374 C.ar    
   9 C9             2.3056     4.1210    -0.0078 C.ar    
  10 N10            1.1984     3.4146     0.0067 N.ar    
  11 N11            2.2231     5.5041     0.0077 N.pl3   
  12 C12            0.9772     6.1309    -0.0829 C.ar    
  13 C13            0.7429     7.3163     0.6023 C.ar    
  14 C14           -0.4892     7.9333     0.5102 C.ar    
  15 C15           -1.4891     7.3723    -0.2630 C.ar    
  16 C16           -1.2593     6.1920    -0.9460 C.ar    
  17 C17           -0.0277     5.5728    -0.8629 C.ar    
  18 N18            4.9900     1.8002    -0.0810 N.pl3   
  19 C19            5.6815     2.9727    -0.0821 C.2     
  20 N20            4.8504     3.9750    -0.0565 N.2     
  21 C21            7.1835     3.0928    -0.1082 C.3     
  22 C22            7.7303     2.9942     1.3192 C.3     
  23 C23            9.2600     3.0381     1.2755 C.3     
  24 O24            9.7424     1.9740     0.4527 O.3     
  25 C25            9.3018     2.0406    -0.9051 C.3     
  26 C26            7.7738     1.9567    -0.9490 C.3     
  27 H27           -0.9562     1.8853     0.0253 H       
  28 H28           -0.9274    -0.5502     0.0031 H       
  29 H29            1.1963    -1.7846    -0.0480 H       
  30 H30            3.3270    -0.5935    -0.0743 H       
  31 H31            3.0301     6.0373     0.0815 H       
  32 H32            1.5232     7.7548     1.2066 H       
  33 H33           -0.6722     8.8548     1.0429 H       
  34 H34           -2.4518     7.8568    -0.3333 H       
  35 H35           -2.0425     5.7563    -1.5487 H       
  36 H36            0.1511     4.6510    -1.3965 H       
  37 H37            5.3709     0.9083    -0.0969 H       
  38 H38            7.4650     4.0528    -0.5410 H       
  39 H39            7.3586     3.8312     1.9103 H       
  40 H40            7.4055     2.0563     1.7697 H       
  41 H41            9.5845     3.9930     0.8622 H       
  42 H42            9.6558     2.9253     2.2848 H       
  43 H43            9.6270     2.9825    -1.3469 H       
  44 H44            9.7279     1.2093    -1.4667 H       
  45 H45            7.4500     0.9978    -0.5444 H       
  46 H46            7.4333     2.0516    -1.9801 H       
@<TRIPOS>BOND
   1    1    2 ar
   2    1    6 ar
   3    1   27 1
   4    2    3 ar
   5    2   28 1
   6    3    4 ar
   7    3   29 1
   8    4    5 ar
   9    4   30 1
  10    5    6 ar
  11    5    7 ar
  12    6   10 ar
  13    7    8 ar
  14    7   18 1
  15    8    9 ar
  16    8   20 1
  17    9   10 ar
  18    9   11 1
  19   11   12 1
  20   11   31 1
  21   12   13 ar
  22   12   17 ar
  23   13   14 ar
  24   13   32 1
  25   14   15 ar
  26   14   33 1
  27   15   16 ar
  28   15   34 1
  29   16   17 ar
  30   16   35 1
  31   17   36 1
  32   18   19 1
  33   18   37 1
  34   19   20 2
  35   19   21 1
  36   21   22 1
  37   21   26 1
  38   21   38 1
  39   22   23 1
  40   22   39 1
  41   22   40 1
  42   23   24 1
  43   23   41 1
  44   23   42 1
  45   24   25 1
  46   25   26 1
  47   25   43 1
  48   25   44 1
  49   26   45 1
  50   26   46 1

#	End of record

