#	Name: ASD01811644
#	Creating user name:	WinNT
#	Creation time:	15. 06. 2019 19:27

#	Modifying user name:	WinNT
#	Modification time:	15. 06. 2019 19:27

#	Program:	/corina/corina34_cracker 3.40 0067  02.08.2006

@<TRIPOS>MOLECULE
ASD01811644
  62   67    0    0    0
SMALL
NO_CHARGES


@<TRIPOS>ATOM
   1 C1            -0.0167     1.3785     0.0096 C.ar    
   2 C2             0.0021    -0.0041     0.0020 C.ar    
   3 C3             1.2023    -0.6845    -0.0123 C.ar    
   4 C4             2.4052     0.0177    -0.0194 C.ar    
   5 C5             2.3734     1.4081    -0.0131 C.ar    
   6 C6             1.1742     2.0838     0.0020 C.ar    
   7 N7             3.7256    -0.4347    -0.0324 N.am    
   8 C8             4.6104     0.5783    -0.0368 C.2     
   9 C9             3.8112     1.8594    -0.0264 C.3     
  10 C10            4.1049     2.6783    -1.2805 C.3     
  11 C11            5.5663     3.1356    -1.2545 C.3     
  12 N12            5.8094     3.9295    -0.0436 N.3     
  13 C13            5.5909     3.1321     1.1700 C.3     
  14 C14            4.1306     2.6742     1.2242 C.3     
  15 C15            7.1590     4.5095    -0.0565 C.3     
  16 C16            7.4354     5.4528     1.1261 C.3     
  17 C17            8.8413     4.8330     1.1900 C.3     
  18 C18            8.2339     3.5818     0.5340 C.3     
  19 O19            5.8194     0.4814    -0.0469 O.2     
  20 C20            4.1041    -1.8500    -0.0394 C.3     
  21 C21            4.2218    -2.3314    -1.4626 C.ar    
  22 C22            5.3671    -2.0561    -2.1923 C.ar    
  23 C23            5.4790    -2.4964    -3.4978 C.ar    
  24 C24            4.4380    -3.2172    -4.0781 C.ar    
  25 C25            3.2893    -3.4906    -3.3391 C.ar    
  26 C26            3.1890    -3.0512    -2.0342 C.ar    
  27 F27            6.3753    -1.3563    -1.6274 F       
  28 C28            4.5521    -3.6923    -5.4802 C.2     
  29 C29            5.6485    -3.4902    -6.3408 C.2     
  30 N30            5.3749    -4.0559    -7.4866 N.2     
  31 N31            4.1037    -4.6367    -7.4035 N.pl3   
  32 C32            3.6164    -4.4093    -6.1672 C.2     
  33 C33            3.4229    -5.3700    -8.4736 C.3     
  34 H34           -0.9586     1.9069     0.0170 H       
  35 H35           -0.9274    -0.5541     0.0077 H       
  36 H36            1.2091    -1.7645    -0.0177 H       
  37 H37            1.1626     3.1637     0.0083 H       
  38 H38            3.9311     2.0650    -2.1646 H       
  39 H39            3.4512     3.5501    -1.3073 H       
  40 H40            6.2199     2.2633    -1.2544 H       
  41 H41            5.7723     3.7439    -2.1352 H       
  42 H42            6.2447     2.2601     1.1544 H       
  43 H43            5.8145     3.7381     2.0480 H       
  44 H44            3.4773     3.5457     1.2675 H       
  45 H45            3.9750     2.0578     2.1097 H       
  46 H46            7.4288     4.9320    -1.0244 H       
  47 H47            7.4354     6.5078     0.8523 H       
  48 H48            6.8251     5.2424     2.0044 H       
  49 H49            9.5725     5.3434     0.5631 H       
  50 H50            9.1981     4.6637     2.2060 H       
  51 H51            7.8419     2.8598     1.2504 H       
  52 H52            8.8785     3.1263    -0.2178 H       
  53 H53            5.0621    -1.9724     0.4659 H       
  54 H54            3.3427    -2.4323     0.4793 H       
  55 H55            6.3715    -2.2816    -4.0668 H       
  56 H56            2.4796    -4.0488    -3.7853 H       
  57 H57            2.2985    -3.2635    -1.4611 H       
  58 H58            6.5569    -2.9595    -6.0966 H       
  59 H59            2.6565    -4.7307    -5.7909 H       
  60 H60            3.6758    -6.4281    -8.4069 H       
  61 H61            2.3449    -5.2468    -8.3696 H       
  62 H62            3.7415    -4.9806    -9.4406 H       
@<TRIPOS>BOND
   1    1    2 ar
   2    1    6 ar
   3    1   34 1
   4    2    3 ar
   5    2   35 1
   6    3    4 ar
   7    3   36 1
   8    4    5 ar
   9    4    7 1
  10    5    6 ar
  11    5    9 1
  12    6   37 1
  13    7    8 am
  14    7   20 1
  15    8    9 1
  16    8   19 2
  17    9   10 1
  18    9   14 1
  19   10   11 1
  20   10   38 1
  21   10   39 1
  22   11   12 1
  23   11   40 1
  24   11   41 1
  25   12   13 1
  26   12   15 1
  27   13   14 1
  28   13   42 1
  29   13   43 1
  30   14   44 1
  31   14   45 1
  32   15   16 1
  33   15   18 1
  34   15   46 1
  35   16   17 1
  36   16   47 1
  37   16   48 1
  38   17   18 1
  39   17   49 1
  40   17   50 1
  41   18   51 1
  42   18   52 1
  43   20   21 1
  44   20   53 1
  45   20   54 1
  46   21   22 ar
  47   21   26 ar
  48   22   23 ar
  49   22   27 1
  50   23   24 ar
  51   23   55 1
  52   24   25 ar
  53   24   28 1
  54   25   26 ar
  55   25   56 1
  56   26   57 1
  57   28   29 1
  58   28   32 2
  59   29   30 2
  60   29   58 1
  61   30   31 1
  62   31   32 1
  63   31   33 1
  64   32   59 1
  65   33   60 1
  66   33   61 1
  67   33   62 1

#	End of record

