#	Name: ASD00170310
#	Creating user name:	WinNT
#	Creation time:	15. 06. 2019 18:31

#	Modifying user name:	WinNT
#	Modification time:	15. 06. 2019 18:31

#	Program:	/corina/corina34_cracker 3.40 0067  02.08.2006

@<TRIPOS>MOLECULE
ASD00170310
  36   38    0    0    0
SMALL
NO_CHARGES


@<TRIPOS>ATOM
   1 S1             0.1581     1.6250     0.6731 S.3     
   2 N2            -0.1180     0.3137    -0.3739 N.pl3   
   3 C3             1.1099    -0.1406    -0.7255 C.2     
   4 N4             2.1493     0.4594    -0.2388 N.2     
   5 C5             1.9252     1.4960     0.5851 C.2     
   6 N6             2.8193     2.2503     1.1926 N.2     
   7 C7            -1.3533    -0.1910    -0.7854 C.ar    
   8 C8             1.2584    -1.2908    -1.6399 C.ar    
   9 C9             4.2483     1.9928     0.9984 C.3     
  10 C10           -2.2289     0.6124    -1.5057 C.ar    
  11 C11           -3.4494     0.1099    -1.9114 C.ar    
  12 C12           -3.8008    -1.1914    -1.6016 C.ar    
  13 C13           -2.9321    -1.9937    -0.8844 C.ar    
  14 C14           -1.7076    -1.4997    -0.4804 C.ar    
  15 C15            0.2882    -1.5418    -2.6129 C.ar    
  16 C16            0.4306    -2.6153    -3.4642 C.ar    
  17 C17            1.5377    -3.4481    -3.3560 C.ar    
  18 C18            2.5050    -3.2018    -2.3894 C.ar    
  19 C19            2.3725    -2.1272    -1.5378 C.ar    
  20 O20            1.6743    -4.5054    -4.1966 O.3     
  21 C21            2.8361    -5.3206    -4.0303 C.3     
  22 H22            4.8290     2.7122     1.5758 H       
  23 H23            4.4844     0.9828     1.3336 H       
  24 H24            4.4950     2.0917    -0.0588 H       
  25 H25           -1.9553     1.6288    -1.7477 H       
  26 H26           -4.1306     0.7338    -2.4710 H       
  27 H27           -4.7561    -1.5818    -1.9202 H       
  28 H28           -3.2101    -3.0092    -0.6437 H       
  29 H29           -1.0297    -2.1268     0.0796 H       
  30 H30           -0.5727    -0.8951    -2.6974 H       
  31 H31           -0.3193    -2.8102    -4.2166 H       
  32 H32            3.3639    -3.8516    -2.3082 H       
  33 H33            3.1248    -1.9365    -0.7867 H       
  34 H34            3.7297    -4.7135    -4.1757 H       
  35 H35            2.8431    -5.7426    -3.0253 H       
  36 H36            2.8219    -6.1274    -4.7631 H       
@<TRIPOS>BOND
   1    1    2 1
   2    1    5 1
   3    2    3 1
   4    2    7 1
   5    3    4 2
   6    3    8 1
   7    4    5 1
   8    5    6 2
   9    6    9 1
  10    7   10 ar
  11    7   14 ar
  12    8   15 ar
  13    8   19 ar
  14    9   22 1
  15    9   23 1
  16    9   24 1
  17   10   11 ar
  18   10   25 1
  19   11   12 ar
  20   11   26 1
  21   12   13 ar
  22   12   27 1
  23   13   14 ar
  24   13   28 1
  25   14   29 1
  26   15   16 ar
  27   15   30 1
  28   16   17 ar
  29   16   31 1
  30   17   18 ar
  31   17   20 1
  32   18   19 ar
  33   18   32 1
  34   19   33 1
  35   20   21 1
  36   21   34 1
  37   21   35 1
  38   21   36 1

#	End of record

