#	Name: ASD07301706
#	Creating user name:	WinNT
#	Creation time:	15. 06. 2019 21:11

#	Modifying user name:	WinNT
#	Modification time:	15. 06. 2019 21:11

#	Program:	/corina/corina34_cracker 3.40 0067  02.08.2006

@<TRIPOS>MOLECULE
ASD07301706
  56   60    0    0    0
SMALL
NO_CHARGES


@<TRIPOS>ATOM
   1 C1            -0.0179     1.4667     0.0101 C.2     
   2 C2             0.0021    -0.0041     0.0020 C.2     
   3 C3             1.2809    -0.6332    -0.0136 C.2     
   4 C4             2.3922     0.1839    -0.0198 C.2     
   5 N5             2.2579     1.5198    -0.0113 N.pl3   
   6 N6             1.1252     2.1175     0.0027 N.2     
   7 O7            -1.0304    -0.6566     0.0088 O.2     
   8 N8            -2.0098     2.6097    -1.0734 N.pl3   
   9 N9            -3.1592     3.2654    -0.6151 N.2     
  10 C10           -3.1541     3.2583     0.6941 C.2     
  11 C11           -2.0054     2.6002     1.1338 C.2     
  12 C12           -1.2999     2.2004     0.0202 C.2     
  13 C13           -1.6545     2.4048    -2.4127 C.ar    
  14 C14           -2.6373     2.1704    -3.3643 C.ar    
  15 C15           -2.2819     1.9681    -4.6884 C.ar    
  16 C16           -0.9449     2.0003    -5.0600 C.ar    
  17 C17            0.0321     2.2334    -4.1112 C.ar    
  18 C18           -0.3188     2.4417    -2.7912 C.ar    
  19 O19           -3.2418     1.7378    -5.6225 O.3     
  20 C20           -2.8033     1.5379    -6.9678 C.3     
  21 F21           -1.9530     0.4282    -7.0210 F       
  22 F22           -3.9120     1.3158    -7.7916 F       
  23 F23           -2.1155     2.6739    -7.4077 F       
  24 C24           -1.6074     2.3691     2.5688 C.3     
  25 C25            1.4117    -2.1095    -0.0223 C.ar    
  26 C26            1.7744    -2.7747    -1.1988 C.ar    
  27 C27            1.8949    -4.1532    -1.2009 C.ar    
  28 C28            1.6561    -4.8728    -0.0376 C.ar    
  29 C29            1.2959    -4.2125     1.1308 C.ar    
  30 C30            1.1793    -2.8383     1.1426 C.ar    
  31 N31            1.7782    -6.2686    -0.0420 N.pl3   
  32 N32            2.1320    -7.0618    -1.1411 N.2     
  33 C33            2.1416    -8.3128    -0.7568 C.2     
  34 C34            1.7947    -8.3575     0.5980 C.2     
  35 C35            1.5812    -7.0881     1.0155 C.2     
  36 O36            2.0071    -2.0690    -2.3361 O.3     
  37 C37            2.3733    -2.8147    -3.4989 C.3     
  38 H38            3.3790    -0.2548    -0.0312 H       
  39 H39            3.0624     2.0617    -0.0158 H       
  40 H40           -3.9133     3.6910     1.3287 H       
  41 H41           -3.6771     2.1452    -3.0733 H       
  42 H42           -0.6679     1.8427    -6.0919 H       
  43 H43            1.0718     2.2573    -4.4027 H       
  44 H44            0.4465     2.6288    -2.0524 H       
  45 H45           -2.0213     1.4211     2.9125 H       
  46 H46           -0.5204     2.3396     2.6442 H       
  47 H47           -1.9927     3.1794     3.1878 H       
  48 H48            2.1743    -4.6694    -2.1074 H       
  49 H49            1.1109    -4.7764     2.0331 H       
  50 H50            0.9039    -2.3274     2.0534 H       
  51 H51            2.3768    -9.1642    -1.3783 H       
  52 H52            1.7153    -9.2476     1.2045 H       
  53 H53            1.3013    -6.7843     2.0134 H       
  54 H54            3.2932    -3.3655    -3.3025 H       
  55 H55            1.5761    -3.5155    -3.7470 H       
  56 H56            2.5298    -2.1320    -4.3340 H       
@<TRIPOS>BOND
   1    1    2 1
   2    1    6 2
   3    1   12 1
   4    2    3 1
   5    2    7 2
   6    3    4 2
   7    3   25 1
   8    4    5 1
   9    4   38 1
  10    5    6 1
  11    5   39 1
  12    8    9 1
  13    8   12 1
  14    8   13 1
  15    9   10 2
  16   10   11 1
  17   10   40 1
  18   11   12 2
  19   11   24 1
  20   13   14 ar
  21   13   18 ar
  22   14   15 ar
  23   14   41 1
  24   15   16 ar
  25   15   19 1
  26   16   17 ar
  27   16   42 1
  28   17   18 ar
  29   17   43 1
  30   18   44 1
  31   19   20 1
  32   20   21 1
  33   20   22 1
  34   20   23 1
  35   24   45 1
  36   24   46 1
  37   24   47 1
  38   25   26 ar
  39   25   30 ar
  40   26   27 ar
  41   26   36 1
  42   27   28 ar
  43   27   48 1
  44   28   29 ar
  45   28   31 1
  46   29   30 ar
  47   29   49 1
  48   30   50 1
  49   31   32 1
  50   31   35 1
  51   32   33 2
  52   33   34 1
  53   33   51 1
  54   34   35 2
  55   34   52 1
  56   35   53 1
  57   36   37 1
  58   37   54 1
  59   37   55 1
  60   37   56 1

#	End of record

