#	Name: ASD01411177
#	Creating user name:	WinNT
#	Creation time:	15. 06. 2019 19:19

#	Modifying user name:	WinNT
#	Modification time:	15. 06. 2019 19:19

#	Program:	/corina/corina34_cracker 3.40 0067  02.08.2006

@<TRIPOS>MOLECULE
ASD01411177
  81   84    0    0    0
SMALL
NO_CHARGES


@<TRIPOS>ATOM
   1 C1             0.1791     1.3720    -0.1362 C.ar    
   2 C2             0.3169     0.0068    -0.1068 C.ar    
   3 C3             1.5759    -0.5880    -0.0545 C.ar    
   4 C4             2.7060     0.2177    -0.0253 C.ar    
   5 C5             2.5734     1.5922    -0.0524 C.ar    
   6 C6             1.3149     2.1762    -0.1091 C.ar    
   7 P7            -1.1296    -1.0949    -0.1289 P.3     
   8 N8            -0.5901    -2.5990     0.2720 N.2     
   9 C9             0.6837    -2.8471     0.2760 C.2     
  10 N10            1.6824    -1.9773    -0.0388 N.pl3   
  11 C11            1.0911    -4.2112     0.6618 C.2     
  12 C12            0.2435    -5.2182     1.0099 C.2     
  13 C13            1.1064    -6.4192     1.3218 C.3     
  14 N14            2.4933    -5.9850     1.1154 N.am    
  15 C15            2.4713    -4.6981     0.7248 C.2     
  16 C16            3.6904    -6.8098     1.2967 C.3     
  17 C17            3.9600    -7.6054     0.0180 C.3     
  18 C18            5.2102    -8.4668     0.2073 C.3     
  19 C19            4.9916    -9.4336     1.3729 C.3     
  20 C20            5.4799    -9.2624    -1.0715 C.3     
  21 C21            6.4093    -7.5660     0.5100 C.3     
  22 O22           -2.1299    -0.6360     0.8606 O.2     
  23 O23           -1.7806    -1.1184    -1.6012 O.3     
  24 O24           -1.0983    -5.1562     1.0657 O.3     
  25 O25            3.4563    -4.0329     0.4651 O.2     
  26 N26            1.1889     3.5695    -0.1393 N.am    
  27 S27            0.6967     4.3859     1.2148 S.o2    
  28 O28            0.6804     5.7495     0.8154 O.2     
  29 O29           -0.4973     3.7236     1.6087 O.2     
  30 C30            2.0161     4.0927     2.4247 C.3     
  31 C31           -2.2880     0.0513    -2.2466 C.3     
  32 C32           -2.8320    -0.3231    -3.6268 C.3     
  33 C33            0.9006    -6.8531     2.7745 C.3     
  34 C34            1.2835    -5.7038     3.7091 C.3     
  35 O35            0.9883    -6.0689     5.0588 O.3     
  36 C36            1.3100    -5.0594     6.0176 C.3     
  37 C37            0.9595    -5.5488     7.3992 C.ar    
  38 C38            1.8977    -6.2335     8.1486 C.ar    
  39 C39            1.5762    -6.6825     9.4159 C.ar    
  40 C40            0.3165    -6.4463     9.9338 C.ar    
  41 C41           -0.6215    -5.7608     9.1847 C.ar    
  42 C42           -0.2985    -5.3081     7.9192 C.ar    
  43 H43           -0.8029     1.8188    -0.1847 H       
  44 H44            3.6879    -0.2299     0.0189 H       
  45 H45            3.4542     2.2167    -0.0295 H       
  46 H46            2.5433    -2.3579    -0.2731 H       
  47 H47            0.8656    -7.2401     0.6464 H       
  48 H48            4.5446    -6.1680     1.5123 H       
  49 H49            3.5346    -7.4986     2.1271 H       
  50 H50            3.1058    -8.2471    -0.1976 H       
  51 H51            4.1158    -6.9166    -0.8124 H       
  52 H52            4.1374   -10.0754     1.1573 H       
  53 H53            5.8822   -10.0473     1.5078 H       
  54 H54            4.7995    -8.8669     2.2839 H       
  55 H55            5.6356    -8.5736    -1.9018 H       
  56 H56            6.3705    -9.8761    -0.9365 H       
  57 H57            4.6256    -9.9042    -1.2871 H       
  58 H58            6.2172    -6.9992     1.4210 H       
  59 H59            7.2999    -8.1797     0.6449 H       
  60 H60            6.5650    -6.8772    -0.3204 H       
  61 H61           -1.5087    -4.3115     0.8355 H       
  62 H62            1.3898     4.0571    -0.9534 H       
  63 H63            2.9389     4.5558     2.0754 H       
  64 H64            1.7324     4.5261     3.3838 H       
  65 H65            2.1697     3.0199     2.5420 H       
  66 H66           -3.0889     0.4801    -1.6444 H       
  67 H67           -1.4863     0.7815    -2.3579 H       
  68 H68           -2.0310    -0.7519    -4.2290 H       
  69 H69           -3.6336    -1.0533    -3.5155 H       
  70 H70           -3.2190     0.5691    -4.1190 H       
  71 H71           -0.1458    -7.1152     2.9307 H       
  72 H72            1.5278    -7.7188     2.9874 H       
  73 H73            2.3494    -5.4973     3.6134 H       
  74 H74            0.7153    -4.8130     3.4412 H       
  75 H75            2.3766    -4.8395     5.9698 H       
  76 H76            0.7425    -4.1552     5.7976 H       
  77 H77            2.8819    -6.4180     7.7440 H       
  78 H78            2.3090    -7.2181    10.0011 H       
  79 H79            0.0650    -6.7977    10.9236 H       
  80 H80           -1.6058    -5.5766     9.5893 H       
  81 H81           -1.0313    -4.7725     7.3339 H       
@<TRIPOS>BOND
   1    1    2 ar
   2    1    6 ar
   3    1   43 1
   4    2    3 ar
   5    2    7 1
   6    3    4 ar
   7    3   10 1
   8    4    5 ar
   9    4   44 1
  10    5    6 ar
  11    5   45 1
  12    6   26 1
  13    7    8 1
  14    7   22 2
  15    7   23 1
  16    8    9 2
  17    9   10 1
  18    9   11 1
  19   10   46 1
  20   11   12 2
  21   11   15 1
  22   12   13 1
  23   12   24 1
  24   13   14 1
  25   13   33 1
  26   13   47 1
  27   14   15 am
  28   14   16 1
  29   15   25 2
  30   16   17 1
  31   16   48 1
  32   16   49 1
  33   17   18 1
  34   17   50 1
  35   17   51 1
  36   18   19 1
  37   18   20 1
  38   18   21 1
  39   19   52 1
  40   19   53 1
  41   19   54 1
  42   20   55 1
  43   20   56 1
  44   20   57 1
  45   21   58 1
  46   21   59 1
  47   21   60 1
  48   23   31 1
  49   24   61 1
  50   26   27 am
  51   26   62 1
  52   27   28 2
  53   27   29 2
  54   27   30 1
  55   30   63 1
  56   30   64 1
  57   30   65 1
  58   31   32 1
  59   31   66 1
  60   31   67 1
  61   32   68 1
  62   32   69 1
  63   32   70 1
  64   33   34 1
  65   33   71 1
  66   33   72 1
  67   34   35 1
  68   34   73 1
  69   34   74 1
  70   35   36 1
  71   36   37 1
  72   36   75 1
  73   36   76 1
  74   37   38 ar
  75   37   42 ar
  76   38   39 ar
  77   38   77 1
  78   39   40 ar
  79   39   78 1
  80   40   41 ar
  81   40   79 1
  82   41   42 ar
  83   41   80 1
  84   42   81 1

#	End of record

