#	Name: ASD04910059
#	Creating user name:	WinNT
#	Creation time:	15. 06. 2019 20:55

#	Modifying user name:	WinNT
#	Modification time:	15. 06. 2019 20:55

#	Program:	/corina/corina34_cracker 3.40 0067  02.08.2006

@<TRIPOS>MOLECULE
ASD04910059
  34   32    0    0    0
SMALL
NO_CHARGES


@<TRIPOS>ATOM
   1 C1            -0.2658     2.0545    -1.6379 C.3     
   2 N2            -0.4573     1.0889    -0.5530 N.2     
   3 C3             0.2617     1.2566     0.7124 C.3     
   4 C4            -1.2826     0.0616    -0.7165 C.2     
   5 C5            -1.6772    -0.3133    -1.9892 C.2     
   6 C6            -0.8894    -1.1753    -2.7323 C.2     
   7 C7            -2.9647     0.2170    -2.5657 C.3     
   8 F8            -3.2623    -0.4670    -3.7492 F       
   9 F9            -4.0007     0.0282    -1.6447 F       
  10 F10           -2.8261     1.5822    -2.8383 F       
  11 N11           -0.9553    -1.1583    -4.0584 N.pl3   
  12 C12           -1.2898     0.0838    -4.7593 C.3     
  13 C13           -0.6934    -2.3818    -4.8205 C.3     
  14 H14            0.0842     1.5345    -2.5296 H       
  15 H15           -1.2121     2.5502    -1.8543 H       
  16 H16            0.4729     2.7973    -1.3369 H       
  17 H17           -0.3362     1.8634     1.3923 H       
  18 H18            0.4416     0.2793     1.1603 H       
  19 H19            1.2147     1.7518     0.5259 H       
  20 H20           -1.6459    -0.4815     0.1434 H       
  21 H21           -0.2212    -1.8617    -2.2335 H       
  22 H22           -0.3744     0.5626    -5.1070 H       
  23 H23           -1.9288    -0.1415    -5.6131 H       
  24 H24           -1.8150     0.7546    -4.0794 H       
  25 H25           -1.6260    -2.9277    -4.9631 H       
  26 H26           -0.2724    -2.1218    -5.7917 H       
  27 H27            0.0132    -3.0062    -4.2737 H       
  28 P28            7.8844     9.4672     8.0622 P.3     
  29 F29            7.9071     7.7973     8.0530 F       
  30 F30            7.8618    11.1370     8.0714 F       
  31 F31            9.5542     9.4899     8.0464 F       
  32 F32            7.9004     9.4582     9.7321 F       
  33 F33            6.2147     9.4444     8.0781 F       
  34 F34            7.8685     9.4761     6.3923 F       
@<TRIPOS>BOND
   1    1    2 1
   2    1   14 1
   3    1   15 1
   4    1   16 1
   5    2    3 1
   6    2    4 2
   7    3   17 1
   8    3   18 1
   9    3   19 1
  10    4    5 1
  11    4   20 1
  12    5    6 2
  13    5    7 1
  14    6   11 1
  15    6   21 1
  16    7    8 1
  17    7    9 1
  18    7   10 1
  19   11   12 1
  20   11   13 1
  21   12   22 1
  22   12   23 1
  23   12   24 1
  24   13   25 1
  25   13   26 1
  26   13   27 1
  27   28   29 1
  28   28   30 1
  29   28   31 1
  30   28   32 1
  31   28   33 1
  32   28   34 1

#	End of record

