#	Name: ASD01148803
#	Creating user name:	WinNT
#	Creation time:	15. 06. 2019 19:03

#	Modifying user name:	WinNT
#	Modification time:	15. 06. 2019 19:03

#	Program:	/corina/corina34_cracker 3.40 0067  02.08.2006

@<TRIPOS>MOLECULE
ASD01148803
  47   49    0    0    0
SMALL
NO_CHARGES


@<TRIPOS>ATOM
   1 N1            -0.0154     1.3412     0.0827 N.pl3   
   2 C2             0.0020     0.0055    -0.1103 C.2     
   3 C3             1.3175    -0.4068    -0.1563 C.2     
   4 C4             2.1210     0.7505     0.0195 C.2     
   5 C5             1.2772     1.8041     0.1631 C.2     
   6 C6             1.7970    -1.7843    -0.3505 C.2     
   7 O7             1.0000    -2.6913    -0.4899 O.2     
   8 O8             3.1202    -2.0403    -0.3738 O.3     
   9 C9            -1.2073    -0.8825    -0.2513 C.3     
  10 C10            1.6799     3.2118     0.3709 C.ar    
  11 C11            0.7825     4.1217     0.9315 C.ar    
  12 C12            1.1638     5.4335     1.1229 C.ar    
  13 C13            2.4337     5.8482     0.7594 C.ar    
  14 C14            3.3283     4.9502     0.2028 C.ar    
  15 C15            2.9607     3.6344     0.0123 C.ar    
  16 Br16           2.9481     7.6486     1.0239 Br      
  17 C17           -1.1680     2.1320     0.1797 C.ar    
  18 C18           -2.0094     2.0037     1.2768 C.ar    
  19 C19           -3.1445     2.7850     1.3698 C.ar    
  20 C20           -3.4436     3.6940     0.3716 C.ar    
  21 C21           -2.6079     3.8238    -0.7224 C.ar    
  22 C22           -1.4680     3.0497    -0.8181 C.ar    
  23 S23           -4.8930     4.6885     0.4936 S.o2    
  24 O24           -5.2277     5.0743    -0.8324 O.2     
  25 O25           -5.7876     3.9907     1.3492 O.2     
  26 N26           -4.4695     6.0763     1.2917 N.am    
  27 C27            3.5208    -3.4221    -0.5695 C.3     
  28 C28            5.0480    -3.5155    -0.5671 C.3     
  29 H29            3.2003     0.7859     0.0361 H       
  30 H30           -1.4884    -0.9495    -1.3023 H       
  31 H31           -0.9733    -1.8779     0.1264 H       
  32 H32           -2.0351    -0.4625     0.3201 H       
  33 H33           -0.2086     3.7995     1.2148 H       
  34 H34            0.4702     6.1386     1.5567 H       
  35 H35            4.3175     5.2796    -0.0791 H       
  36 H36            3.6609     2.9337    -0.4179 H       
  37 H37           -1.7766     1.2934     2.0563 H       
  38 H38           -3.7994     2.6856     2.2228 H       
  39 H39           -2.8445     4.5341    -1.5008 H       
  40 H40           -0.8133     3.1547    -1.6706 H       
  41 H41           -4.9355     6.9058     1.1029 H       
  42 H42           -3.7554     6.0597     1.9479 H       
  43 H43            3.1181    -4.0349     0.2370 H       
  44 H44            3.1364    -3.7801    -1.5245 H       
  45 H45            5.4324    -3.1575     0.3880 H       
  46 H46            5.3488    -4.5529    -0.7140 H       
  47 H47            5.4507    -2.9028    -1.3736 H       
@<TRIPOS>BOND
   1    1    2 1
   2    1    5 1
   3    1   17 1
   4    2    3 2
   5    2    9 1
   6    3    4 1
   7    3    6 1
   8    4    5 2
   9    4   29 1
  10    5   10 1
  11    6    7 2
  12    6    8 1
  13    8   27 1
  14    9   30 1
  15    9   31 1
  16    9   32 1
  17   10   11 ar
  18   10   15 ar
  19   11   12 ar
  20   11   33 1
  21   12   13 ar
  22   12   34 1
  23   13   14 ar
  24   13   16 1
  25   14   15 ar
  26   14   35 1
  27   15   36 1
  28   17   18 ar
  29   17   22 ar
  30   18   19 ar
  31   18   37 1
  32   19   20 ar
  33   19   38 1
  34   20   21 ar
  35   20   23 1
  36   21   22 ar
  37   21   39 1
  38   22   40 1
  39   23   24 2
  40   23   25 2
  41   23   26 am
  42   26   41 1
  43   26   42 1
  44   27   28 1
  45   27   43 1
  46   27   44 1
  47   28   45 1
  48   28   46 1
  49   28   47 1

#	End of record

