#	Name: ASD08070662
#	Creating user name:	WinNT
#	Creation time:	15. 06. 2019 21:15

#	Modifying user name:	WinNT
#	Modification time:	15. 06. 2019 21:15

#	Program:	/corina/corina34_cracker 3.40 0067  02.08.2006

@<TRIPOS>MOLECULE
ASD08070662
  41   41    0    0    0
SMALL
NO_CHARGES


@<TRIPOS>ATOM
   1 C1             0.2402     1.8156     0.3163 C.2     
   2 C2             0.3618     0.3493     0.4612 C.ar    
   3 C3             1.6222    -0.2499     0.4928 C.ar    
   4 C4             1.7286    -1.6184     0.6286 C.ar    
   5 C5             0.5895    -2.3971     0.7331 C.ar    
   6 C6            -0.6626    -1.8096     0.7025 C.ar    
   7 C7            -0.7829    -0.4412     0.5728 C.ar    
   8 O8             1.2391     2.5021     0.2244 O.2     
   9 N9            -0.9783     2.3905     0.2806 N.am    
  10 C10            0.7134    -3.8918     0.8803 C.3     
  11 C11            3.0885    -2.2671     0.6629 C.3     
  12 C12           -1.0987     3.8435     0.1370 C.3     
  13 C13           -1.0412     4.2159    -1.3458 C.3     
  14 C14           -1.2504     5.7235    -1.5015 C.3     
  15 C15            0.3248     3.8291    -1.9162 C.3     
  16 C16           -2.4325     4.3054     0.7275 C.3     
  17 O17           -3.5077     3.7531    -0.0347 O.3     
  18 C18           -4.8047     4.1249     0.4359 C.3     
  19 H19            2.5120     0.3566     0.4106 H       
  20 H20           -1.5477    -2.4230     0.7845 H       
  21 H21           -1.7608     0.0167     0.5532 H       
  22 H22           -1.7755     1.8422     0.3500 H       
  23 H23            0.7669    -4.1495     1.9381 H       
  24 H24           -0.1553    -4.3743     0.4323 H       
  25 H25            1.6182    -4.2327     0.3771 H       
  26 H26            3.4399    -2.3201     1.6934 H       
  27 H27            3.0215    -3.2734     0.2496 H       
  28 H28            3.7876    -1.6768     0.0706 H       
  29 H29           -0.2792     4.3300     0.6659 H       
  30 H30           -1.8242     3.6828    -1.8850 H       
  31 H31           -1.2094     5.9889    -2.5579 H       
  32 H32           -2.2236     5.9991    -1.0952 H       
  33 H33           -0.4674     6.2566    -0.9623 H       
  34 H34            0.4243     2.7436    -1.9165 H       
  35 H35            0.4113     4.2021    -2.9367 H       
  36 H36            1.1120     4.2659    -1.3017 H       
  37 H37           -2.5087     3.9677     1.7610 H       
  38 H38           -2.4863     5.3937     0.6960 H       
  39 H39           -5.5656     3.6656    -0.1951 H       
  40 H40           -4.9302     3.7834     1.4634 H       
  41 H41           -4.9077     5.2094     0.3983 H       
@<TRIPOS>BOND
   1    1    2 1
   2    1    8 2
   3    1    9 am
   4    2    3 ar
   5    2    7 ar
   6    3    4 ar
   7    3   19 1
   8    4    5 ar
   9    4   11 1
  10    5    6 ar
  11    5   10 1
  12    6    7 ar
  13    6   20 1
  14    7   21 1
  15    9   12 1
  16    9   22 1
  17   10   23 1
  18   10   24 1
  19   10   25 1
  20   11   26 1
  21   11   27 1
  22   11   28 1
  23   12   13 1
  24   12   16 1
  25   12   29 1
  26   13   14 1
  27   13   15 1
  28   13   30 1
  29   14   31 1
  30   14   32 1
  31   14   33 1
  32   15   34 1
  33   15   35 1
  34   15   36 1
  35   16   17 1
  36   16   37 1
  37   16   38 1
  38   17   18 1
  39   18   39 1
  40   18   40 1
  41   18   41 1

#	End of record

