#	Name: ASD01903238
#	Creating user name:	WinNT
#	Creation time:	15. 06. 2019 19:54

#	Modifying user name:	WinNT
#	Modification time:	15. 06. 2019 19:54

#	Program:	/corina/corina34_cracker 3.40 0067  02.08.2006

@<TRIPOS>MOLECULE
ASD01903238
  42   44    0    0    0
SMALL
NO_CHARGES


@<TRIPOS>ATOM
   1 S1            -0.7445     0.5782    -1.4031 S.3     
   2 C2            -0.3764    -0.9980    -0.8544 C.2     
   3 N3             0.9045    -1.1443    -0.7283 N.2     
   4 C4             1.6607    -0.0970    -1.0324 C.2     
   5 C5             0.9693     0.9838    -1.4352 C.2     
   6 N6            -1.3166    -1.9817    -0.5821 N.pl3   
   7 C7            -2.6663    -1.7164    -0.7523 C.ar    
   8 C8             3.1426    -0.1169    -0.9364 C.2     
   9 C9             3.9362    -1.1966    -0.4869 C.2     
  10 N10            5.1929    -0.8286    -0.5492 N.2     
  11 N11            5.2475     0.4834    -1.0348 N.pl3   
  12 C12            3.9856     0.9008    -1.2712 C.2     
  13 N13           -3.5504    -2.6668    -0.4877 N.ar    
  14 C14           -4.8459    -2.4464    -0.6395 C.ar    
  15 C15           -5.2732    -1.2041    -1.0808 C.ar    
  16 C16           -4.3212    -0.2324    -1.3483 C.ar    
  17 N17           -3.0418    -0.5165    -1.1705 N.ar    
  18 C18           -5.8450    -3.5333    -0.3368 C.3     
  19 N19            3.4638    -2.4391    -0.0513 N.3     
  20 C20            4.5330    -3.4462    -0.0739 C.3     
  21 C21            2.8663    -2.3355     1.2867 C.3     
  22 C22            3.9185    -4.8445     0.0176 C.3     
  23 C23            3.9240    -1.8537     2.2817 C.3     
  24 H24            1.3911     1.9341    -1.7275 H       
  25 H25           -1.0292    -2.8550    -0.2728 H       
  26 H26            6.0541     1.0023    -1.1801 H       
  27 H27            3.6955     1.8693    -1.6509 H       
  28 H28           -6.3249    -0.9975    -1.2137 H       
  29 H29           -4.6209     0.7459    -1.6940 H       
  30 H30           -6.1446    -3.4703     0.7093 H       
  31 H31           -6.7208    -3.4094    -0.9737 H       
  32 H32           -5.3921    -4.5064    -0.5271 H       
  33 H33            5.0965    -3.3571    -1.0026 H       
  34 H34            5.2004    -3.2866     0.7729 H       
  35 H35            2.0404    -1.6247     1.2617 H       
  36 H36            2.4953    -3.3128     1.5955 H       
  37 H37            3.3529    -4.9328     0.9451 H       
  38 H38            3.2530    -5.0050    -0.8305 H       
  39 H39            4.7120    -5.5917     0.0033 H       
  40 H40            4.6960    -2.6157     2.3887 H       
  41 H41            4.3731    -0.9304     1.9158 H       
  42 H42            3.4564    -1.6718     3.2493 H       
@<TRIPOS>BOND
   1    1    2 1
   2    1    5 1
   3    2    3 2
   4    2    6 1
   5    3    4 1
   6    4    5 2
   7    4    8 1
   8    5   24 1
   9    6    7 1
  10    6   25 1
  11    7   13 ar
  12    7   17 ar
  13    8    9 1
  14    8   12 2
  15    9   10 2
  16    9   19 1
  17   10   11 1
  18   11   12 1
  19   11   26 1
  20   12   27 1
  21   13   14 ar
  22   14   15 ar
  23   14   18 1
  24   15   16 ar
  25   15   28 1
  26   16   17 ar
  27   16   29 1
  28   18   30 1
  29   18   31 1
  30   18   32 1
  31   19   20 1
  32   19   21 1
  33   20   22 1
  34   20   33 1
  35   20   34 1
  36   21   23 1
  37   21   35 1
  38   21   36 1
  39   22   37 1
  40   22   38 1
  41   22   39 1
  42   23   40 1
  43   23   41 1
  44   23   42 1

#	End of record

