#	Name: ASD01028351
#	Creating user name:	WinNT
#	Creation time:	15. 06. 2019 18:57

#	Modifying user name:	WinNT
#	Modification time:	15. 06. 2019 18:57

#	Program:	/corina/corina34_cracker 3.40 0067  02.08.2006

@<TRIPOS>MOLECULE
ASD01028351
  46   50    0    0    0
SMALL
NO_CHARGES


@<TRIPOS>ATOM
   1 C1            -0.0171     1.4115     0.0098 C.ar    
   2 C2             0.0021    -0.0041     0.0020 C.ar    
   3 C3             1.2133     2.1120     0.0018 C.ar    
   4 C4             2.3842     1.3678    -0.0134 C.ar    
   5 C5             2.3180    -0.0177    -0.0203 C.ar    
   6 N6             1.1708    -0.6569    -0.0123 N.ar    
   7 S7             1.2561     3.8735     0.0104 S.3     
   8 C8             3.0457     4.1444    -0.0051 C.3     
   9 C9             3.3297     5.6244    -0.0002 C.2     
  10 N10            3.4902     6.4018     1.0929 N.pl3   
  11 C11            3.7296     7.6716     0.6234 C.2     
  12 N12            3.7029     7.6026    -0.6975 N.2     
  13 N13            3.4711     6.3877    -1.0551 N.2     
  14 N14            3.4569     6.1584     2.4674 N.2     
  15 C15            3.6534     7.1373     3.3228 C.2     
  16 C16            3.9010     8.4513     2.8721 C.2     
  17 C17            3.9402     8.7190     1.5401 C.2     
  18 C18            3.6139     6.8571     4.7792 C.ar    
  19 C19           -1.2147    -0.7040     0.0100 C.ar    
  20 C20            3.3698     5.5634     5.2361 C.ar    
  21 C21            3.3346     5.3084     6.5920 C.ar    
  22 C22            3.5410     6.3341     7.4968 C.ar    
  23 C23            3.7837     7.6201     7.0489 C.ar    
  24 C24            3.8264     7.8855     5.6952 C.ar    
  25 C25           -2.4013    -0.0058     0.0251 C.ar    
  26 C26           -2.4080     1.3916     0.0322 C.ar    
  27 C27           -1.2414     2.0934     0.0309 C.ar    
  28 O28           -3.5787    -0.6830     0.0329 O.3     
  29 C29           -4.7758     0.0972     0.0485 C.3     
  30 H30            3.3429     1.8651    -0.0202 H       
  31 H31            3.2358    -0.5869    -0.0322 H       
  32 H32            3.4901     3.6862     0.8785 H       
  33 H33            3.4734     3.6952    -0.9014 H       
  34 H34            4.0598     9.2454     3.5866 H       
  35 H35            4.1292     9.7228     1.1895 H       
  36 H36           -1.2200    -1.7840     0.0039 H       
  37 H37            3.2081     4.7619     4.5305 H       
  38 H38            3.1452     4.3063     6.9473 H       
  39 H39            3.5122     6.1302     8.5570 H       
  40 H40            3.9438     8.4173     7.7598 H       
  41 H41            4.0160     8.8900     5.3465 H       
  42 H42           -3.3494     1.9209     0.0433 H       
  43 H43           -1.2594     3.1732     0.0368 H       
  44 H44           -5.6413    -0.5653     0.0533 H       
  45 H45           -4.7910     0.7214     0.9420 H       
  46 H46           -4.8082     0.7308    -0.8378 H       
@<TRIPOS>BOND
   1    1    2 ar
   2    1    3 ar
   3    1   27 ar
   4    2   19 ar
   5    2    6 ar
   6    3    4 ar
   7    3    7 1
   8    4    5 ar
   9    4   30 1
  10    5    6 ar
  11    5   31 1
  12    7    8 1
  13    8    9 1
  14    8   32 1
  15    8   33 1
  16    9   10 1
  17    9   13 2
  18   10   11 1
  19   10   14 1
  20   11   12 2
  21   11   17 1
  22   12   13 1
  23   14   15 2
  24   15   16 1
  25   15   18 1
  26   16   17 2
  27   16   34 1
  28   17   35 1
  29   18   20 ar
  30   18   24 ar
  31   19   25 ar
  32   19   36 1
  33   20   21 ar
  34   20   37 1
  35   21   22 ar
  36   21   38 1
  37   22   23 ar
  38   22   39 1
  39   23   24 ar
  40   23   40 1
  41   24   41 1
  42   25   26 ar
  43   25   28 1
  44   26   27 ar
  45   26   42 1
  46   27   43 1
  47   28   29 1
  48   29   44 1
  49   29   45 1
  50   29   46 1

#	End of record

