#	Name: ASD01900399
#	Creating user name:	WinNT
#	Creation time:	15. 06. 2019 19:51

#	Modifying user name:	WinNT
#	Modification time:	15. 06. 2019 19:51

#	Program:	/corina/corina34_cracker 3.40 0067  02.08.2006

@<TRIPOS>MOLECULE
ASD01900399
  24   26    0    0    0
SMALL
NO_CHARGES


@<TRIPOS>ATOM
   1 C1            -0.0176     1.4031     0.0118 C.ar    
   2 C2             0.0011    -0.0048     0.0121 C.ar    
   3 C3             1.2290    -0.6655    -0.0036 C.ar    
   4 C4             2.3808     0.0964    -0.0190 C.ar    
   5 C5             2.2877     1.4821    -0.0183 C.ar    
   6 N6             1.1228     2.0891    -0.0040 N.ar    
   7 N7            -2.1429     0.6954     0.0410 N.2     
   8 N8            -1.3032    -0.4231     0.0300 N.pl3   
   9 C9            -1.4300     1.7903     0.0367 C.2     
  10 N10           -1.9266     3.0979     0.0457 N.pl3   
  11 C11           -3.2962     3.3220    -0.0394 C.ar    
  12 C12           -3.8010     4.6149     0.0794 C.ar    
  13 N13           -4.1254     2.3054    -0.2394 N.ar    
  14 N14           -5.1012     4.8240    -0.0023 N.ar    
  15 C15           -5.9254     3.8082    -0.1966 C.ar    
  16 C16           -5.4281     2.5230    -0.3202 C.ar    
  17 Cl17          -6.5144     1.1946    -0.5824 Cl      
  18 H18            1.2780    -1.7443    -0.0035 H       
  19 H19            3.3486    -0.3828    -0.0310 H       
  20 H20            3.1917     2.0728    -0.0299 H       
  21 H21           -1.5974    -1.3474     0.0341 H       
  22 H22           -1.3156     3.8484     0.1112 H       
  23 H23           -3.1289     5.4452     0.2385 H       
  24 H24           -6.9891     3.9829    -0.2630 H       
@<TRIPOS>BOND
   1    1    2 ar
   2    1    6 ar
   3    1    9 1
   4    2    3 ar
   5    2    8 1
   6    3    4 ar
   7    3   18 1
   8    4    5 ar
   9    4   19 1
  10    5    6 ar
  11    5   20 1
  12    7    8 1
  13    7    9 2
  14    8   21 1
  15    9   10 1
  16   10   11 1
  17   10   22 1
  18   11   12 ar
  19   11   13 ar
  20   12   14 ar
  21   12   23 1
  22   13   16 ar
  23   14   15 ar
  24   15   16 ar
  25   15   24 1
  26   16   17 1

#	End of record

