#	Name: ASD03092151
#	Creating user name:	WinNT
#	Creation time:	15. 06. 2019 20:32

#	Modifying user name:	WinNT
#	Modification time:	15. 06. 2019 20:32

#	Program:	/corina/corina34_cracker 3.40 0067  02.08.2006

@<TRIPOS>MOLECULE
ASD03092151
  51   53    0    0    0
SMALL
NO_CHARGES


@<TRIPOS>ATOM
   1 N1            -0.0307     1.2346    -0.2398 N.pl3   
   2 C2            -0.0980    -0.1028     0.0162 C.2     
   3 C3            -1.4106    -0.4130     0.2304 C.2     
   4 C4            -2.1557     0.7659     0.1008 C.2     
   5 N5            -1.3313     1.7502    -0.1743 N.2     
   6 N6            -3.5439     0.8771     0.2460 N.pl3   
   7 C7            -4.1525     2.1354     0.2060 C.ar    
   8 C8            -5.4789     2.2542    -0.1879 C.ar    
   9 C9            -6.0780     3.4982    -0.2267 C.ar    
  10 C10           -5.3571     4.6262     0.1263 C.ar    
  11 C11           -3.4329     3.2680     0.5657 C.ar    
  12 C12            1.0419    -1.0452     0.0548 C.ar    
  13 C13            1.1865     1.9979    -0.5262 C.3     
  14 C14            2.2265    -0.7698    -0.6408 C.ar    
  15 C15            3.2662    -1.6720    -0.5800 C.ar    
  16 N16            3.1598    -2.7857     0.1209 N.ar    
  17 C17            2.0594    -3.0879     0.7941 C.ar    
  18 C18            0.9677    -2.2302     0.7902 C.ar    
  19 C19           -4.0342     4.5102     0.5195 C.ar    
  20 C20            1.2900     2.2465    -2.0323 C.3     
  21 N21            1.9994    -4.2743     1.5167 N.pl3   
  22 C22            0.7509    -4.6694     2.1737 C.3     
  23 O23            1.1363     3.2499     0.1609 O.3     
  24 F24           -5.9448     5.8421     0.0868 F       
  25 C25            4.5438    -1.3833    -1.3252 C.3     
  26 C26            3.1845    -5.1292     1.6212 C.3     
  27 C27           -7.5174     3.6278    -0.6540 C.3     
  28 F28           -8.0289     2.3619    -0.9592 F       
  29 F29           -8.2632     4.1940     0.3853 F       
  30 F30           -7.5961     4.4477    -1.7848 F       
  31 H31           -1.8040    -1.3925     0.4586 H       
  32 H32           -4.0834     0.0812     0.3742 H       
  33 H33           -6.0415     1.3746    -0.4640 H       
  34 H34           -2.4027     3.1774     0.8770 H       
  35 H35            2.0566     1.4338    -0.1904 H       
  36 H36            2.3235     0.1381    -1.2176 H       
  37 H37            0.0722    -2.4795     1.3401 H       
  38 H38           -3.4736     5.3916     0.7941 H       
  39 H39            1.3283     1.2916    -2.5564 H       
  40 H40            0.4199     2.8107    -2.3681 H       
  41 H41            2.1957     2.8145    -2.2453 H       
  42 H42            0.1536    -5.2700     1.4876 H       
  43 H43            0.9786    -5.2544     3.0647 H       
  44 H44            0.1917    -3.7779     2.4574 H       
  45 H45            1.9119     3.8090     0.0167 H       
  46 H46            5.2242    -0.8290    -0.6788 H       
  47 H47            5.0103    -2.3221    -1.6238 H       
  48 H48            4.3210    -0.7901    -2.2121 H       
  49 H49            3.7661    -4.8386     2.4960 H       
  50 H50            2.8745    -6.1695     1.7200 H       
  51 H51            3.7946    -5.0154     0.7251 H       
@<TRIPOS>BOND
   1    1    2 1
   2    1   13 1
   3    1    5 1
   4    2    3 2
   5    2   12 1
   6    3    4 1
   7    3   31 1
   8    4    5 2
   9    4    6 1
  10    6    7 1
  11    6   32 1
  12    7    8 ar
  13    7   11 ar
  14    8    9 ar
  15    8   33 1
  16    9   10 ar
  17    9   27 1
  18   10   19 ar
  19   10   24 1
  20   11   19 ar
  21   11   34 1
  22   12   14 ar
  23   12   18 ar
  24   13   20 1
  25   13   23 1
  26   13   35 1
  27   14   15 ar
  28   14   36 1
  29   15   16 ar
  30   15   25 1
  31   16   17 ar
  32   17   18 ar
  33   17   21 1
  34   18   37 1
  35   19   38 1
  36   20   39 1
  37   20   40 1
  38   20   41 1
  39   21   22 1
  40   21   26 1
  41   22   42 1
  42   22   43 1
  43   22   44 1
  44   23   45 1
  45   25   46 1
  46   25   47 1
  47   25   48 1
  48   26   49 1
  49   26   50 1
  50   26   51 1
  51   27   28 1
  52   27   29 1
  53   27   30 1

#	End of record

