#	Name: ASD08150076
#	Creating user name:	WinNT
#	Creation time:	15. 06. 2019 21:15

#	Modifying user name:	WinNT
#	Modification time:	15. 06. 2019 21:15

#	Program:	/corina/corina34_cracker 3.40 0067  02.08.2006

@<TRIPOS>MOLECULE
ASD08150076
  48   50    0    0    0
SMALL
NO_CHARGES


@<TRIPOS>ATOM
   1 O1            -0.0453     1.5389    -0.2436 O.3     
   2 C2            -0.2205     0.2134    -0.2837 C.2     
   3 N3             0.9047    -0.4882    -0.0902 N.am    
   4 C4             2.0206     0.4484     0.1130 C.3     
   5 C5             1.3591     1.8360     0.0060 C.3     
   6 O6            -1.3012    -0.3069    -0.4774 O.2     
   7 C7             3.0769     0.2709    -0.9795 C.3     
   8 C8             1.5191     2.6089     1.3166 C.3     
   9 C9             0.8705     3.9877     1.1780 C.3     
  10 C10            1.1480     4.8108     2.4376 C.3     
  11 C11            1.4550     4.7062    -0.0398 C.3     
  12 O12           -0.5404     3.8357     1.0096 O.3     
  13 C13            2.2482    -3.7896     0.2272 C.ar    
  14 N14            2.1517    -2.4685     0.2181 N.ar    
  15 C15            1.0015    -1.8751    -0.0823 C.ar    
  16 C16           -0.1075    -2.6631    -0.3892 C.ar    
  17 C17            0.0349    -4.0394    -0.3685 C.ar    
  18 N18            1.2126    -4.5642    -0.0598 N.ar    
  19 O19            5.2086    -5.9708     2.0534 O.3     
  20 C20            4.7432    -6.4461     0.7873 C.3     
  21 C21            3.3672    -5.8415     0.4958 C.3     
  22 N22            3.4628    -4.3751     0.5389 N.3     
  23 C23            3.9440    -3.9229     1.8524 C.3     
  24 C24            5.3143    -4.5466     2.1303 C.3     
  25 Cl25          -1.3134    -5.0671    -0.7419 Cl      
  26 H26            2.4620     0.3097     1.0999 H       
  27 H27            1.7841     2.3988    -0.8251 H       
  28 H28            2.6215     0.4372    -1.9558 H       
  29 H29            3.8818     0.9898    -0.8269 H       
  30 H30            3.4799    -0.7409    -0.9343 H       
  31 H31            1.0352     2.0593     2.1240 H       
  32 H32            2.5790     2.7270     1.5417 H       
  33 H33            2.2240     4.9317     2.5628 H       
  34 H34            0.6810     5.7909     2.3413 H       
  35 H35            0.7367     4.2960     3.3059 H       
  36 H36            1.2573     4.1198    -0.9371 H       
  37 H37            0.9930     5.6884    -0.1385 H       
  38 H38            2.5312     4.8222     0.0887 H       
  39 H39           -0.7903     3.3230     0.2287 H       
  40 H40           -1.0558    -2.2096    -0.6370 H       
  41 H41            5.4439    -6.1490     0.0071 H       
  42 H42            4.6653    -7.5330     0.8128 H       
  43 H43            3.0337    -6.1556    -0.4933 H       
  44 H44            2.6537    -6.1820     1.2463 H       
  45 H45            4.0317    -2.8364     1.8535 H       
  46 H46            3.2398    -4.2327     2.6245 H       
  47 H47            5.6494    -4.2598     3.1270 H       
  48 H48            6.0316    -4.1943     1.3890 H       
@<TRIPOS>BOND
   1    1    2 1
   2    1    5 1
   3    2    3 am
   4    2    6 2
   5    3    4 1
   6    3   15 1
   7    4    5 1
   8    4    7 1
   9    4   26 1
  10    5    8 1
  11    5   27 1
  12    7   28 1
  13    7   29 1
  14    7   30 1
  15    8    9 1
  16    8   31 1
  17    8   32 1
  18    9   10 1
  19    9   11 1
  20    9   12 1
  21   10   33 1
  22   10   34 1
  23   10   35 1
  24   11   36 1
  25   11   37 1
  26   11   38 1
  27   12   39 1
  28   13   14 ar
  29   13   18 ar
  30   13   22 1
  31   14   15 ar
  32   15   16 ar
  33   16   17 ar
  34   16   40 1
  35   17   18 ar
  36   17   25 1
  37   19   20 1
  38   19   24 1
  39   20   21 1
  40   20   41 1
  41   20   42 1
  42   21   22 1
  43   21   43 1
  44   21   44 1
  45   22   23 1
  46   23   24 1
  47   23   45 1
  48   23   46 1
  49   24   47 1
  50   24   48 1

#	End of record

