#	Name: ASD00431040
#	Creating user name:	WinNT
#	Creation time:	15. 06. 2019 18:35

#	Modifying user name:	WinNT
#	Modification time:	15. 06. 2019 18:35

#	Program:	/corina/corina34_cracker 3.40 0067  02.08.2006

@<TRIPOS>MOLECULE
ASD00431040
  87   91    0    0    0
SMALL
NO_CHARGES


@<TRIPOS>ATOM
   1 C1            -0.4696     1.8146     0.4532 C.2     
   2 C2            -0.7305     0.3709     0.0431 C.3     
   3 C3            -2.1405     0.1356     0.6225 C.3     
   4 C4            -2.6920     1.5415     0.7671 C.2     
   5 N5            -1.7119     2.4305     0.5144 N.am    
   6 C6            -2.9943    -0.6827    -0.3483 C.3     
   7 O7            -3.8345     1.8209     1.0634 O.2     
   8 C8            -4.3058    -1.0312     0.3071 C.2     
   9 N9            -5.2239    -1.7537    -0.3648 N.am    
  10 O10           -4.5350    -0.6615     1.4392 O.2     
  11 C11           -1.9299     3.8672     0.3279 C.3     
  12 C12           -2.3105     4.1356    -1.1054 C.ar    
  13 C13           -3.6402     4.2914    -1.4497 C.ar    
  14 C14           -1.3287     4.2317    -2.0752 C.ar    
  15 C15           -1.6783     4.4782    -3.3910 C.ar    
  16 C16           -3.0092     4.6283    -3.7358 C.ar    
  17 C17           -3.9900     4.5376    -2.7638 C.ar    
  18 Cl18           0.3417     4.0437    -1.6413 Cl      
  19 Cl19          -3.4488     4.9381    -5.3864 Cl      
  20 C20            0.7092     2.3069     0.7468 C.2     
  21 C21            1.9432     1.4493     0.7519 C.3     
  22 N22            1.6292     0.0512     0.4689 N.am    
  23 C23            0.3096    -0.4964     0.7604 C.3     
  24 C24            2.5697    -0.7450    -0.0769 C.2     
  25 O25            2.3164    -1.9093    -0.3153 O.2     
  26 O26            3.7900    -0.2504    -0.3580 O.3     
  27 C27            4.7529    -1.1652    -0.9447 C.3     
  28 C28           -6.5070    -2.1014     0.2608 C.3     
  29 C29           -4.9631    -2.2036    -1.7389 C.3     
  30 C30           -6.1203    -1.7496    -2.6343 C.3     
  31 C31           -7.4413    -2.2530    -2.0482 C.3     
  32 C32           -7.6437    -1.6488    -0.6611 C.3     
  33 C33           -8.5791    -1.8372    -2.9447 C.ar    
  34 C34           -9.3903    -2.7963    -3.5218 C.ar    
  35 C35          -10.4339    -2.4150    -4.3442 C.ar    
  36 C36          -10.6667    -1.0745    -4.5890 C.ar    
  37 C37           -9.8560    -0.1154    -4.0112 C.ar    
  38 C38           -8.8151    -0.4966    -3.1853 C.ar    
  39 C39            4.2087    -1.6961    -2.2725 C.3     
  40 C40            6.0710    -0.4287    -1.1919 C.3     
  41 C41            4.9938    -2.3347     0.0119 C.3     
  42 C42           -0.6901     0.1837    -1.4517 C.2     
  43 O43           -0.5865     1.1437    -2.1781 O.2     
  44 O44           -0.7691    -1.0493    -1.9761 O.3     
  45 C45           -0.8261    -2.6252    -3.8318 C.3     
  46 C46           -0.7238    -1.1542    -3.4236 C.3     
  47 H47           -2.0808    -0.3564     1.5933 H       
  48 H48           -3.1822    -0.0978    -1.2487 H       
  49 H49           -2.4660    -1.5985    -0.6135 H       
  50 H50           -2.7323     4.2013     0.9856 H       
  51 H51           -1.0143     4.4078     0.5680 H       
  52 H52           -4.4060     4.2203    -0.6915 H       
  53 H53           -0.9121     4.5537    -4.1484 H       
  54 H54           -5.0294     4.6548    -3.0330 H       
  55 H55            0.7958     3.3554     0.9909 H       
  56 H56            2.6359     1.8184    -0.0045 H       
  57 H57            2.4187     1.5161     1.7305 H       
  58 H58            0.1224    -0.4612     1.8336 H       
  59 H59            0.2487    -1.5255     0.4062 H       
  60 H60           -6.5622    -3.1802     0.4064 H       
  61 H61           -6.5934    -1.5959     1.2227 H       
  62 H62           -4.0311    -1.7655    -2.0962 H       
  63 H63           -4.8898    -3.2909    -1.7598 H       
  64 H64           -6.1359    -0.6609    -2.6845 H       
  65 H65           -5.9873    -2.1586    -3.6359 H       
  66 H66           -7.4154    -3.3402    -1.9753 H       
  67 H67           -8.5954    -1.9879    -0.2518 H       
  68 H68           -7.6457    -0.5612    -0.7347 H       
  69 H69           -9.2084    -3.8436    -3.3305 H       
  70 H70          -11.0672    -3.1643    -4.7956 H       
  71 H71          -11.4816    -0.7766    -5.2321 H       
  72 H72          -10.0377     0.9318    -4.2027 H       
  73 H73           -8.1818     0.2527    -2.7338 H       
  74 H74            4.0371    -0.8629    -2.9540 H       
  75 H75            4.9315    -2.3828    -2.7129 H       
  76 H76            3.2696    -2.2208    -2.0964 H       
  77 H77            6.4588    -0.0504    -0.2460 H       
  78 H78            6.7939    -1.1154    -1.6323 H       
  79 H79            5.8994     0.4045    -1.8734 H       
  80 H80            4.0548    -2.8594     0.1879 H       
  81 H81            5.7167    -3.0214    -0.4286 H       
  82 H82            5.3815    -1.9565     0.9578 H       
  83 H83           -1.7661    -3.0390    -3.4668 H       
  84 H84           -0.7921    -2.7039    -4.9184 H       
  85 H85            0.0070    -3.1806    -3.4010 H       
  86 H86           -1.5569    -0.5988    -3.8544 H       
  87 H87            0.2162    -0.7404    -3.7886 H       
@<TRIPOS>BOND
   1    1    2 1
   2    1   20 2
   3    1    5 1
   4    2   42 1
   5    2    3 1
   6    2   23 1
   7    3    4 1
   8    3    6 1
   9    3   47 1
  10    4    5 am
  11    4    7 2
  12    5   11 1
  13    6    8 1
  14    6   48 1
  15    6   49 1
  16    8    9 am
  17    8   10 2
  18    9   28 1
  19    9   29 1
  20   11   12 1
  21   11   50 1
  22   11   51 1
  23   12   13 ar
  24   12   14 ar
  25   13   17 ar
  26   13   52 1
  27   14   15 ar
  28   14   18 1
  29   15   16 ar
  30   15   53 1
  31   16   17 ar
  32   16   19 1
  33   17   54 1
  34   20   21 1
  35   20   55 1
  36   21   22 1
  37   21   56 1
  38   21   57 1
  39   22   23 1
  40   22   24 am
  41   23   58 1
  42   23   59 1
  43   24   25 2
  44   24   26 1
  45   26   27 1
  46   27   39 1
  47   27   40 1
  48   27   41 1
  49   28   32 1
  50   28   60 1
  51   28   61 1
  52   29   30 1
  53   29   62 1
  54   29   63 1
  55   30   31 1
  56   30   64 1
  57   30   65 1
  58   31   32 1
  59   31   33 1
  60   31   66 1
  61   32   67 1
  62   32   68 1
  63   33   34 ar
  64   33   38 ar
  65   34   35 ar
  66   34   69 1
  67   35   36 ar
  68   35   70 1
  69   36   37 ar
  70   36   71 1
  71   37   38 ar
  72   37   72 1
  73   38   73 1
  74   39   74 1
  75   39   75 1
  76   39   76 1
  77   40   77 1
  78   40   78 1
  79   40   79 1
  80   41   80 1
  81   41   81 1
  82   41   82 1
  83   42   43 2
  84   42   44 1
  85   44   46 1
  86   45   46 1
  87   45   83 1
  88   45   84 1
  89   45   85 1
  90   46   86 1
  91   46   87 1

#	End of record

