#	Name: ASD01152527
#	Creating user name:	WinNT
#	Creation time:	15. 06. 2019 19:06

#	Modifying user name:	WinNT
#	Modification time:	15. 06. 2019 19:06

#	Program:	/corina/corina34_cracker 3.40 0067  02.08.2006

@<TRIPOS>MOLECULE
ASD01152527
  50   52    0    0    0
SMALL
NO_CHARGES


@<TRIPOS>ATOM
   1 C1             0.1114     1.1571    -0.6959 C.2     
   2 N2             0.0189    -0.1436    -0.6175 N.2     
   3 N3            -1.1205    -0.7661    -0.1080 N.am    
   4 C4            -2.2615    -0.0993     0.1330 C.2     
   5 C5            -2.3924     1.3536    -0.2592 C.3     
   6 C6            -1.0084     1.9736    -0.2035 C.2     
   7 C7            -2.9557     1.4586    -1.6778 C.3     
   8 O8            -0.8358     3.0970     0.2224 O.2     
   9 C9            -1.0734    -2.1389     0.1623 C.ar    
  10 O10           -3.1907    -0.6664     0.6673 O.2     
  11 C11           -3.1985     2.9070    -2.0160 C.ar    
  12 C12           -0.0101    -2.6693     0.8797 C.ar    
  13 C13           -2.0939    -2.9703    -0.2824 C.ar    
  14 C14           -2.0490    -4.3251    -0.0160 C.ar    
  15 C15           -0.9884    -4.8582     0.6946 C.ar    
  16 C16            0.0334    -4.0297     1.1463 C.ar    
  17 C17           -2.1975     3.6549    -2.6061 C.ar    
  18 C18           -4.4243     3.4841    -1.7405 C.ar    
  19 C19           -4.6511     4.8124    -2.0496 C.ar    
  20 C20           -3.6511     5.5672    -2.6361 C.ar    
  21 C21           -2.4207     4.9874    -2.9177 C.ar    
  22 F22           -0.9477    -6.1834     0.9543 F       
  23 F23           -3.8725     6.8651    -2.9387 F       
  24 O24            1.2212     1.7435    -1.2163 O.3     
  25 C25            2.2637     0.8753    -1.6654 C.3     
  26 N26            1.1045    -4.5683     1.8702 N.am    
  27 C27            1.7680    -3.8044     2.7605 C.2     
  28 O28            1.4983    -2.6269     2.8693 O.2     
  29 C29            2.8451    -4.4133     3.6209 C.3     
  30 O30           -1.4355     5.7264    -3.4937 O.3     
  31 C31           -0.1962     5.0644    -3.7546 C.3     
  32 H32           -3.0529     1.8665     0.4399 H       
  33 H33           -2.2419     1.0353    -2.3844 H       
  34 H34           -3.8952     0.9092    -1.7373 H       
  35 H35            0.7820    -2.0238     1.2294 H       
  36 H36           -2.9234    -2.5568    -0.8368 H       
  37 H37           -2.8435    -4.9693    -0.3628 H       
  38 H38           -1.2417     3.2018    -2.8241 H       
  39 H39           -5.2063     2.8960    -1.2833 H       
  40 H40           -5.6095     5.2609    -1.8335 H       
  41 H41            2.6166     0.2693    -0.8309 H       
  42 H42            1.8808     0.2239    -2.4511 H       
  43 H43            3.0888     1.4704    -2.0568 H       
  44 H44            1.3688    -5.4911     1.7308 H       
  45 H45            2.9446    -5.4724     3.3831 H       
  46 H46            3.7917    -3.9076     3.4302 H       
  47 H47            2.5780    -4.3003     4.6716 H       
  48 H48            0.2232     4.6961    -2.8183 H       
  49 H49           -0.3671     4.2266    -4.4306 H       
  50 H50            0.5006     5.7655    -4.2139 H       
@<TRIPOS>BOND
   1    1    2 2
   2    1   24 1
   3    1    6 1
   4    2    3 1
   5    3    4 am
   6    3    9 1
   7    4    5 1
   8    4   10 2
   9    5    6 1
  10    5    7 1
  11    5   32 1
  12    6    8 2
  13    7   11 1
  14    7   33 1
  15    7   34 1
  16    9   12 ar
  17    9   13 ar
  18   11   17 ar
  19   11   18 ar
  20   12   16 ar
  21   12   35 1
  22   13   14 ar
  23   13   36 1
  24   14   15 ar
  25   14   37 1
  26   15   16 ar
  27   15   22 1
  28   16   26 1
  29   17   21 ar
  30   17   38 1
  31   18   19 ar
  32   18   39 1
  33   19   20 ar
  34   19   40 1
  35   20   21 ar
  36   20   23 1
  37   21   30 1
  38   24   25 1
  39   25   41 1
  40   25   42 1
  41   25   43 1
  42   26   27 am
  43   26   44 1
  44   27   28 2
  45   27   29 1
  46   29   45 1
  47   29   46 1
  48   29   47 1
  49   30   31 1
  50   31   48 1
  51   31   49 1
  52   31   50 1

#	End of record

