#	Name: ASD08150279
#	Creating user name:	WinNT
#	Creation time:	15. 06. 2019 21:15

#	Modifying user name:	WinNT
#	Modification time:	15. 06. 2019 21:15

#	Program:	/corina/corina34_cracker 3.40 0067  02.08.2006

@<TRIPOS>MOLECULE
ASD08150279
  41   43    0    0    0
SMALL
NO_CHARGES


@<TRIPOS>ATOM
   1 N1            -1.9243    -1.1726     1.5300 N.2     
   2 C2            -0.8498    -1.7610     1.0999 C.2     
   3 N3            -0.0970    -1.2844     0.0717 N.am    
   4 C4            -0.4462    -0.1427    -0.5658 C.2     
   5 C5            -1.6587     0.5476    -0.1027 C.ar    
   6 C6            -2.1038     1.7297    -0.6913 C.ar    
   7 C7            -3.2467     2.3354    -0.2174 C.ar    
   8 C8            -3.9553     1.7782     0.8392 C.ar    
   9 C9            -3.5323     0.6113     1.4348 C.ar    
  10 C10           -2.3769    -0.0219     0.9722 C.ar    
  11 O11            0.2183     0.2958    -1.4867 O.2     
  12 C12            1.0496    -1.9811    -0.3303 C.ar    
  13 C13            2.2986    -1.5941     0.1372 C.ar    
  14 C14            3.4273    -2.2834    -0.2607 C.ar    
  15 C15            3.3146    -3.3580    -1.1237 C.ar    
  16 C16            2.0723    -3.7455    -1.5914 C.ar    
  17 C17            0.9392    -3.0638    -1.1927 C.ar    
  18 C18           -1.3401     2.3413    -1.8375 C.3     
  19 C19           -0.4141    -3.0364     1.7741 C.3     
  20 C20           -0.3108    -2.8060     3.2831 C.3     
  21 C21            0.2504    -4.0616     3.9535 C.3     
  22 N22           -1.3989    -4.0930     1.5064 N.3     
  23 H23           -3.5945     3.2517    -0.6711 H       
  24 H24           -4.8491     2.2666     1.1983 H       
  25 H25           -4.0913     0.1879     2.2562 H       
  26 H26            2.3873    -0.7547     0.8110 H       
  27 H27            4.3990    -1.9827     0.1024 H       
  28 H28            4.1987    -3.8954    -1.4334 H       
  29 H29            1.9876    -4.5847    -2.2659 H       
  30 H30           -0.0312    -3.3698    -1.5548 H       
  31 H31           -1.6370     1.8605    -2.7695 H       
  32 H32           -1.5598     3.4075    -1.8926 H       
  33 H33           -0.2712     2.1983    -1.6793 H       
  34 H34            0.5582    -3.3390     1.3854 H       
  35 H35            0.3525    -1.9631     3.4774 H       
  36 H36           -1.3002    -2.5901     3.6863 H       
  37 H37            0.3240    -3.8975     5.0286 H       
  38 H38           -0.4129    -4.9045     3.7593 H       
  39 H39            1.2398    -4.2774     3.5504 H       
  40 H40           -2.3024    -3.8492     1.8838 H       
  41 H41           -1.4605    -4.2880     0.5183 H       
@<TRIPOS>BOND
   1    1    2 2
   2    1   10 1
   3    2    3 1
   4    2   19 1
   5    3    4 am
   6    3   12 1
   7    4    5 1
   8    4   11 2
   9    5    6 ar
  10    5   10 ar
  11    6    7 ar
  12    6   18 1
  13    7    8 ar
  14    7   23 1
  15    8    9 ar
  16    8   24 1
  17    9   10 ar
  18    9   25 1
  19   12   13 ar
  20   12   17 ar
  21   13   14 ar
  22   13   26 1
  23   14   15 ar
  24   14   27 1
  25   15   16 ar
  26   15   28 1
  27   16   17 ar
  28   16   29 1
  29   17   30 1
  30   18   31 1
  31   18   32 1
  32   18   33 1
  33   19   20 1
  34   19   22 1
  35   19   34 1
  36   20   21 1
  37   20   35 1
  38   20   36 1
  39   21   37 1
  40   21   38 1
  41   21   39 1
  42   22   40 1
  43   22   41 1

#	End of record

