#	Name: ASD05430652
#	Creating user name:	WinNT
#	Creation time:	15. 06. 2019 21:00

#	Modifying user name:	WinNT
#	Modification time:	15. 06. 2019 21:00

#	Program:	/corina/corina34_cracker 3.40 0067  02.08.2006

@<TRIPOS>MOLECULE
ASD05430652
  37   38    0    0    0
SMALL
NO_CHARGES


@<TRIPOS>ATOM
   1 C1            -0.0362     1.3750    -0.0479 C.ar    
   2 C2             0.0195    -0.0156     0.0014 C.ar    
   3 C3            -1.1511    -0.7559    -0.0713 C.ar    
   4 C4            -2.3684    -0.1132    -0.1925 C.ar    
   5 C5            -2.4232     1.2677    -0.2415 C.ar    
   6 C6            -1.2614     2.0123    -0.1638 C.ar    
   7 C7            -3.7538     1.9628    -0.3737 C.3     
   8 C8            -4.4348     1.5183    -1.6697 C.3     
   9 C9            -4.6402     1.5985     0.8190 C.3     
  10 N10            1.2571    -0.6664     0.1241 N.pl3   
  11 C11            2.3287    -0.5243    -0.6979 C.2     
  12 C12            1.6142    -1.5606     1.0995 C.2     
  13 C13            2.8811    -1.9363     0.8395 C.2     
  14 N14            3.2919    -1.2895    -0.2612 N.2     
  15 C15            3.6975    -2.9113     1.6482 C.3     
  16 O16            1.1080     2.1057     0.0229 O.3     
  17 S17            1.4795     2.6319     1.5529 Du      
  18 F18            0.9968     1.2192     2.1559 F       
  19 F19            2.9726     2.0521     1.3898 F       
  20 F20            1.9621     4.0445     0.9499 F       
  21 F21            1.8397     3.1422     3.0367 F       
  22 F22           -0.0137     3.2116     1.7160 F       
  23 H23           -1.1112    -1.8345    -0.0336 H       
  24 H24           -3.2792    -0.6908    -0.2494 H       
  25 H25           -1.3076     3.0906    -0.2023 H       
  26 H26           -3.5996     3.0416    -0.3957 H       
  27 H27           -4.5890     0.4395    -1.6477 H       
  28 H28           -5.3972     2.0211    -1.7654 H       
  29 H29           -3.8033     1.7778    -2.5195 H       
  30 H30           -4.7944     0.5197     0.8410 H       
  31 H31           -4.1551     1.9151     1.7423 H       
  32 H32           -5.6026     2.1012     0.7234 H       
  33 H33            2.3758     0.1143    -1.5675 H       
  34 H34            0.9981    -1.8988     1.9195 H       
  35 H35            3.5460    -3.9195     1.2627 H       
  36 H36            4.7531    -2.6494     1.5754 H       
  37 H37            3.3841    -2.8701     2.6913 H       
@<TRIPOS>BOND
   1    1    2 ar
   2    1   16 1
   3    1    6 ar
   4    2    3 ar
   5    2   10 1
   6    3    4 ar
   7    3   23 1
   8    4    5 ar
   9    4   24 1
  10    5    6 ar
  11    5    7 1
  12    6   25 1
  13    7    8 1
  14    7    9 1
  15    7   26 1
  16    8   27 1
  17    8   28 1
  18    8   29 1
  19    9   30 1
  20    9   31 1
  21    9   32 1
  22   10   11 1
  23   10   12 1
  24   11   14 2
  25   11   33 1
  26   12   13 2
  27   12   34 1
  28   13   14 1
  29   13   15 1
  30   15   35 1
  31   15   36 1
  32   15   37 1
  33   16   17 1
  34   17   18 1
  35   17   19 1
  36   17   20 1
  37   17   21 1
  38   17   22 1

#	End of record

