#	Name: ASD00122011
#	Creating user name:	WinNT
#	Creation time:	15. 06. 2019 18:31

#	Modifying user name:	WinNT
#	Modification time:	15. 06. 2019 18:31

#	Program:	/corina/corina34_cracker 3.40 0067  02.08.2006

@<TRIPOS>MOLECULE
ASD00122011
  53   53    0    0    0
SMALL
NO_CHARGES


@<TRIPOS>ATOM
   1 C1            -0.0168     1.3898     0.0097 C.ar    
   2 C2             0.0021    -0.0041     0.0020 C.ar    
   3 C3            -1.1889    -0.7175     0.0096 C.ar    
   4 C4            -2.3948    -0.0510     0.0252 C.ar    
   5 C5            -2.4210     1.3457     0.0329 C.ar    
   6 C6            -1.2224     2.0640     0.0306 C.ar    
   7 C7            -3.7119     2.0612     0.0491 C.2     
   8 N8            -4.8671     1.3670     0.0564 N.am    
   9 O9            -3.7332     3.2769     0.0558 O.2     
  10 C10           -6.1484     2.0771     0.0724 C.3     
  11 C11           -6.5472     2.4420    -1.3589 C.3     
  12 C12           -7.2224     1.1776     0.6875 C.3     
  13 C13           -6.8870     0.9145     2.1569 C.3     
  14 C14           -5.5384     3.4401    -1.9307 C.3     
  15 O15            1.1516     2.0858     0.0023 O.3     
  16 C16            1.0574     3.5117     0.0108 C.3     
  17 C17            2.4631     4.1157     0.0006 C.3     
  18 O18            1.1880    -0.6655    -0.0133 O.3     
  19 C19            1.1344    -2.0935    -0.0205 C.3     
  20 C20            2.5566    -2.6572    -0.0376 C.3     
  21 O21            3.1138     3.7872    -1.2285 O.3     
  22 O22            3.2214    -2.3099     1.1787 O.3     
  23 C23            4.4404     4.3063    -1.3406 C.3     
  24 C24            4.5642    -2.7910     1.2651 C.3     
  25 H25           -1.1702    -1.7973     0.0029 H       
  26 H26           -3.3198    -0.6085     0.0310 H       
  27 H27           -1.2385     3.1438     0.0365 H       
  28 H28           -4.8501     0.3971     0.0510 H       
  29 H29           -6.0525     2.9863     0.6658 H       
  30 H30           -6.5567     1.5422    -1.9741 H       
  31 H31           -7.5406     2.8907    -1.3562 H       
  32 H32           -8.1921     1.6704     0.6187 H       
  33 H33           -7.2566     0.2313     0.1475 H       
  34 H34           -5.9172     0.4216     2.2256 H       
  35 H35           -6.8527     1.8607     2.6968 H       
  36 H36           -7.6521     0.2736     2.5951 H       
  37 H37           -4.5450     2.9914    -1.9335 H       
  38 H38           -5.8225     3.7001    -2.9504 H       
  39 H39           -5.5289     4.3399    -1.3156 H       
  40 H40            0.5122     3.8451    -0.8722 H       
  41 H41            0.5292     3.8355     0.9076 H       
  42 H42            2.3936     5.1992     0.0967 H       
  43 H43            3.0376     3.7131     0.8349 H       
  44 H44            0.6161    -2.4421     0.8729 H       
  45 H45            0.5984    -2.4325    -0.9070 H       
  46 H46            2.5163    -3.7423    -0.1326 H       
  47 H47            3.1032    -2.2386    -0.8827 H       
  48 H48            4.8652     4.0135    -2.3008 H       
  49 H49            4.4120     5.3938    -1.2724 H       
  50 H50            5.0560     3.9077    -0.5342 H       
  51 H51            4.9989    -2.4859     2.2169 H       
  52 H52            4.5655    -3.8789     1.1971 H       
  53 H53            5.1524    -2.3752     0.4470 H       
@<TRIPOS>BOND
   1    1    2 ar
   2    1   15 1
   3    1    6 ar
   4    2    3 ar
   5    2   18 1
   6    3    4 ar
   7    3   25 1
   8    4    5 ar
   9    4   26 1
  10    5    6 ar
  11    5    7 1
  12    6   27 1
  13    7    8 am
  14    7    9 2
  15    8   10 1
  16    8   28 1
  17   10   11 1
  18   10   12 1
  19   10   29 1
  20   11   14 1
  21   11   30 1
  22   11   31 1
  23   12   13 1
  24   12   32 1
  25   12   33 1
  26   13   34 1
  27   13   35 1
  28   13   36 1
  29   14   37 1
  30   14   38 1
  31   14   39 1
  32   15   16 1
  33   16   17 1
  34   16   40 1
  35   16   41 1
  36   17   21 1
  37   17   42 1
  38   17   43 1
  39   18   19 1
  40   19   20 1
  41   19   44 1
  42   19   45 1
  43   20   22 1
  44   20   46 1
  45   20   47 1
  46   21   23 1
  47   22   24 1
  48   23   48 1
  49   23   49 1
  50   23   50 1
  51   24   51 1
  52   24   52 1
  53   24   53 1

#	End of record

