#	Name: ASD08150467
#	Creating user name:	WinNT
#	Creation time:	15. 06. 2019 21:16

#	Modifying user name:	WinNT
#	Modification time:	15. 06. 2019 21:16

#	Program:	/corina/corina34_cracker 3.40 0067  02.08.2006

@<TRIPOS>MOLECULE
ASD08150467
  85   92    0    0    0
SMALL
NO_CHARGES


@<TRIPOS>ATOM
   1 N1             0.4800     1.6733    -0.3056 N.am    
   2 C2             1.2782     2.0382    -1.3276 C.2     
   3 C3             2.5774     1.5066    -1.4566 C.2     
   4 C4             3.0437     0.6140    -0.5463 C.2     
   5 C5             2.2067     0.2283     0.5304 C.ar    
   6 C6             2.6413    -0.6933     1.5020 C.ar    
   7 N7             1.8670    -1.0474     2.4942 N.ar    
   8 C8             0.6263    -0.5598     2.6456 C.ar    
   9 C9             0.1062     0.3734     1.7153 C.ar    
  10 C10            0.9185     0.7765     0.6294 C.ar    
  11 C11           -1.1884     0.8748     1.8815 C.ar    
  12 C12           -1.9509     0.4517     2.9582 C.ar    
  13 C13           -1.4292    -0.4718     3.8751 C.ar    
  14 C14           -0.1719    -0.9683     3.7269 C.ar    
  15 O15            0.8714     2.8388    -2.1523 O.2     
  16 C16           -3.3250     0.9785     3.1420 C.ar    
  17 C17           -0.8054     2.2202    -0.1966 C.ar    
  18 C18           -1.0051     3.3845     0.5342 C.ar    
  19 C19           -2.2710     3.9233     0.6416 C.ar    
  20 C20           -3.3459     3.3011     0.0187 C.ar    
  21 C21           -3.1461     2.1369    -0.7120 C.ar    
  22 C22           -1.8787     1.6013    -0.8240 C.ar    
  23 N23           -4.6285     3.8465     0.1278 N.3     
  24 C24           -4.9574     4.6582    -1.0515 C.3     
  25 C25           -4.7659     4.6252     1.3659 C.3     
  26 C26           -6.2276     5.0520     1.5374 C.3     
  27 N27           -6.6580     5.7469     0.3146 N.am    
  28 C28           -6.4270     5.0864    -0.9790 C.3     
  29 C29           -3.7876     2.0398     2.3477 C.ar    
  30 N30           -4.9953     2.5244     2.4877 N.ar    
  31 C31           -5.8484     2.0337     3.3931 C.ar    
  32 C32           -5.4556     0.9613     4.2332 C.ar    
  33 C33           -4.1648     0.4223     4.0962 C.ar    
  34 C34           -7.1416     2.5679     3.5290 C.ar    
  35 C35           -7.9923     2.0523     4.4578 C.ar    
  36 C36           -7.6040     0.9985     5.2828 C.ar    
  37 C37           -6.3603     0.4544     5.1815 C.ar    
  38 C38           -7.2487     6.9566     0.3780 C.2     
  39 C39           -7.4150     7.6453     1.7081 C.3     
  40 O40           -7.6466     7.4910    -0.6354 O.2     
  41 C41           -7.8319     9.1012     1.4820 C.3     
  42 C42           -8.0582     9.7780     2.8357 C.3     
  43 N43           -9.1042     9.0597     3.5748 N.3     
  44 C44           -8.7060     7.6723     3.8450 C.3     
  45 C45           -8.4990     6.9326     2.5214 C.3     
  46 C46           -9.4457     9.7613     4.8194 C.3     
  47 C47           -4.3119     1.4616    -1.3874 C.3     
  48 F48           -3.8866     0.2570    -1.9576 F       
  49 F49           -5.3118     1.2035    -0.4437 F       
  50 F50           -4.8194     2.2976    -2.3878 F       
  51 H51            3.2036     1.8101    -2.2824 H       
  52 H52            4.0381     0.2035    -0.6414 H       
  53 H53            3.6324    -1.1158     1.4261 H       
  54 H54           -1.5908     1.5867     1.1761 H       
  55 H55           -2.0339    -0.7931     4.7103 H       
  56 H56            0.2140    -1.6792     4.4424 H       
  57 H57           -0.1696     3.8679     1.0187 H       
  58 H58           -2.4263     4.8283     1.2102 H       
  59 H59           -1.7225     0.6985    -1.3959 H       
  60 H60           -4.3214     5.5432    -1.0729 H       
  61 H61           -4.7940     4.0704    -1.9548 H       
  62 H62           -4.4634     4.0134     2.2158 H       
  63 H63           -4.1325     5.5106     1.3108 H       
  64 H64           -6.8499     4.1714     1.6964 H       
  65 H65           -6.3149     5.7245     2.3908 H       
  66 H66           -6.6462     5.7816    -1.7894 H       
  67 H67           -7.0685     4.2091    -1.0619 H       
  68 H68           -3.1312     2.4666     1.6039 H       
  69 H69           -3.8340    -0.3948     4.7201 H       
  70 H70           -7.4590     3.3852     2.8984 H       
  71 H71           -8.9845     2.4670     4.5574 H       
  72 H72           -8.2986     0.6086     6.0122 H       
  73 H73           -6.0706    -0.3623     5.8261 H       
  74 H74           -6.4715     7.6170     2.2533 H       
  75 H75           -7.0445     9.6252     0.9402 H       
  76 H76           -8.7544     9.1296     0.9021 H       
  77 H77           -7.1316     9.7614     3.4095 H       
  78 H78           -8.3690    10.8108     2.6780 H       
  79 H79           -7.7763     7.6656     4.4140 H       
  80 H80           -9.4873     7.1757     4.4203 H       
  81 H81           -9.4320     6.9269     1.9579 H       
  82 H82           -8.1883     5.9073     2.7222 H       
  83 H83           -9.8082    10.7621     4.5847 H       
  84 H84          -10.2225     9.2079     5.3471 H       
  85 H85           -8.5597     9.8344     5.4501 H       
@<TRIPOS>BOND
   1    1    2 am
   2    1   10 1
   3    1   17 1
   4    2    3 1
   5    2   15 2
   6    3    4 2
   7    3   51 1
   8    4    5 1
   9    4   52 1
  10    5    6 ar
  11    5   10 ar
  12    6    7 ar
  13    6   53 1
  14    7    8 ar
  15    8    9 ar
  16    8   14 ar
  17    9   10 ar
  18    9   11 ar
  19   11   12 ar
  20   11   54 1
  21   12   13 ar
  22   12   16 1
  23   13   14 ar
  24   13   55 1
  25   14   56 1
  26   16   29 ar
  27   16   33 ar
  28   17   18 ar
  29   17   22 ar
  30   18   19 ar
  31   18   57 1
  32   19   20 ar
  33   19   58 1
  34   20   21 ar
  35   20   23 1
  36   21   22 ar
  37   21   47 1
  38   22   59 1
  39   23   24 1
  40   23   25 1
  41   24   28 1
  42   24   60 1
  43   24   61 1
  44   25   26 1
  45   25   62 1
  46   25   63 1
  47   26   27 1
  48   26   64 1
  49   26   65 1
  50   27   28 1
  51   27   38 am
  52   28   66 1
  53   28   67 1
  54   29   30 ar
  55   29   68 1
  56   30   31 ar
  57   31   32 ar
  58   31   34 ar
  59   32   33 ar
  60   32   37 ar
  61   33   69 1
  62   34   35 ar
  63   34   70 1
  64   35   36 ar
  65   35   71 1
  66   36   37 ar
  67   36   72 1
  68   37   73 1
  69   38   39 1
  70   38   40 2
  71   39   41 1
  72   39   45 1
  73   39   74 1
  74   41   42 1
  75   41   75 1
  76   41   76 1
  77   42   43 1
  78   42   77 1
  79   42   78 1
  80   43   44 1
  81   43   46 1
  82   44   45 1
  83   44   79 1
  84   44   80 1
  85   45   81 1
  86   45   82 1
  87   46   83 1
  88   46   84 1
  89   46   85 1
  90   47   48 1
  91   47   49 1
  92   47   50 1

#	End of record

