#	Name: ASD03731733
#	Creating user name:	WinNT
#	Creation time:	15. 06. 2019 20:46

#	Modifying user name:	WinNT
#	Modification time:	15. 06. 2019 20:46

#	Program:	/corina/corina34_cracker 3.40 0067  02.08.2006

@<TRIPOS>MOLECULE
ASD03731733
  39   40    0    0    0
SMALL
NO_CHARGES


@<TRIPOS>ATOM
   1 C1            -0.0179     1.4718     0.0101 C.2     
   2 C2             0.0021    -0.0041     0.0020 C.ar    
   3 C3             1.2205    -0.6880    -0.0133 C.ar    
   4 C4             1.2351    -2.0649    -0.0203 C.ar    
   5 C5             0.0397    -2.7745    -0.0127 C.ar    
   6 C6            -1.1746    -2.0977     0.0025 C.ar    
   7 C7            -1.1973    -0.7210     0.0155 C.ar    
   8 O8             1.0266     2.0940     0.0035 O.2     
   9 N9            -1.1942     2.1297     0.0193 N.am    
  10 S10           -1.2166     3.7855     0.0284 S.o2    
  11 O11           -2.5980     4.1171     0.0625 O.2     
  12 O12           -0.3511     4.1419     1.0976 O.2     
  13 C13           -0.4880     4.2569    -1.5646 C.3     
  14 O14            0.0581    -4.1313    -0.0206 O.3     
  15 C15           -1.1329    -4.7855    -0.0127 C.ar    
  16 C16           -1.7538    -5.1133    -1.2096 C.ar    
  17 C17           -2.9645    -5.7783    -1.1987 C.ar    
  18 C18           -3.5577    -6.1174     0.0034 C.ar    
  19 C19           -2.9414    -5.7915     1.1974 C.ar    
  20 C20           -1.7276    -5.1320     1.1922 C.ar    
  21 C21           -1.0532    -4.7831     2.4939 C.3     
  22 C22           -1.1081    -4.7437    -2.5201 C.3     
  23 H23            2.1496    -0.1374    -0.0199 H       
  24 H24            2.1764    -2.5942    -0.0322 H       
  25 H25           -2.1012    -2.6525     0.0080 H       
  26 H26           -2.1410    -0.1959     0.0314 H       
  27 H27           -2.0275     1.6334     0.0205 H       
  28 H28           -1.0900     3.8462    -2.3752 H       
  29 H29           -0.4628     5.3436    -1.6453 H       
  30 H30            0.5266     3.8640    -1.6305 H       
  31 H31           -3.4483    -6.0334    -2.1300 H       
  32 H32           -4.5043    -6.6373     0.0096 H       
  33 H33           -3.4071    -6.0568     2.1350 H       
  34 H34           -1.3852    -3.7983     2.8226 H       
  35 H35           -1.3140    -5.5251     3.2485 H       
  36 H36            0.0275    -4.7735     2.3520 H       
  37 H37           -0.4574    -5.5551    -2.8462 H       
  38 H38           -1.8802    -4.5733    -3.2703 H       
  39 H39           -0.5195    -3.8353    -2.3917 H       
@<TRIPOS>BOND
   1    1    2 1
   2    1    8 2
   3    1    9 am
   4    2    3 ar
   5    2    7 ar
   6    3    4 ar
   7    3   23 1
   8    4    5 ar
   9    4   24 1
  10    5    6 ar
  11    5   14 1
  12    6    7 ar
  13    6   25 1
  14    7   26 1
  15    9   10 am
  16    9   27 1
  17   10   11 2
  18   10   12 2
  19   10   13 1
  20   13   28 1
  21   13   29 1
  22   13   30 1
  23   14   15 1
  24   15   16 ar
  25   15   20 ar
  26   16   17 ar
  27   16   22 1
  28   17   18 ar
  29   17   31 1
  30   18   19 ar
  31   18   32 1
  32   19   20 ar
  33   19   33 1
  34   20   21 1
  35   21   34 1
  36   21   35 1
  37   21   36 1
  38   22   37 1
  39   22   38 1
  40   22   39 1

#	End of record

