#	Name: ASD03080206
#	Creating user name:	WinNT
#	Creation time:	15. 06. 2019 20:26

#	Modifying user name:	WinNT
#	Modification time:	15. 06. 2019 20:26

#	Program:	/corina/corina34_cracker 3.40 0067  02.08.2006

@<TRIPOS>MOLECULE
ASD03080206
  37   38    0    0    0
SMALL
NO_CHARGES


@<TRIPOS>ATOM
   1 C1            -0.0169     1.3843     0.0016 C.ar    
   2 C2             0.0021    -0.0040     0.0016 C.ar    
   3 C3             1.2233    -0.6646    -0.0063 C.ar    
   4 C4             2.3918     0.1041    -0.0141 C.ar    
   5 C5             2.2848     1.4952    -0.0135 C.ar    
   6 N6             1.1040     2.0786    -0.0059 N.ar    
   7 C7             3.7189    -0.5469    -0.0222 C.2     
   8 C8             4.8195     0.1918    -0.0295 C.2     
   9 N9             8.3832     0.1416    -0.8378 N.3     
  10 C10            6.9862    -0.0365    -1.2746 C.3     
  11 C11            6.1725    -0.4719    -0.0378 C.3     
  12 C12            7.0386     0.0333     1.1460 C.3     
  13 C13            8.4719    -0.1863     0.6011 C.3     
  14 O14           -1.1607    -0.7078     0.0098 O.3     
  15 C15           -1.0601    -2.1283    -0.1098 C.3     
  16 C16           -0.8200    -2.7406     1.2716 C.3     
  17 C17           -2.3599    -2.6841    -0.6951 C.3     
  18 H18           -0.9640     1.9033     0.0032 H       
  19 H19            1.2697    -1.7436    -0.0062 H       
  20 H20            3.1796     2.0999    -0.0195 H       
  21 H21            3.7918    -1.6245    -0.0222 H       
  22 H22            4.7467     1.2694    -0.0295 H       
  23 H23            9.0079    -0.4366    -1.3796 H       
  24 H24            6.5962     0.9045    -1.6626 H       
  25 H25            6.9335    -0.8074    -2.0434 H       
  26 H26            6.0710    -1.5567    -0.0057 H       
  27 H27            6.8532     1.0893     1.3427 H       
  28 H28            6.8649    -0.5652     2.0402 H       
  29 H29            8.7741    -1.2249     0.7357 H       
  30 H30            9.1740     0.4818     1.0999 H       
  31 H31           -0.2285    -2.3795    -0.7682 H       
  32 H32           -0.7433    -3.8241     1.1803 H       
  33 H33            0.1060    -2.3447     1.6885 H       
  34 H34           -1.6516    -2.4894     1.9299 H       
  35 H35           -2.5310    -2.2478    -1.6793 H       
  36 H36           -2.2832    -3.7675    -0.7864 H       
  37 H37           -3.1915    -2.4329    -0.0368 H       
@<TRIPOS>BOND
   1    1    2 ar
   2    1    6 ar
   3    1   18 1
   4    2    3 ar
   5    2   14 1
   6    3    4 ar
   7    3   19 1
   8    4    5 ar
   9    4    7 1
  10    5    6 ar
  11    5   20 1
  12    7    8 2
  13    7   21 1
  14    8   11 1
  15    8   22 1
  16    9   10 1
  17    9   13 1
  18    9   23 1
  19   10   11 1
  20   10   24 1
  21   10   25 1
  22   11   12 1
  23   11   26 1
  24   12   13 1
  25   12   27 1
  26   12   28 1
  27   13   29 1
  28   13   30 1
  29   14   15 1
  30   15   16 1
  31   15   17 1
  32   15   31 1
  33   16   32 1
  34   16   33 1
  35   16   34 1
  36   17   35 1
  37   17   36 1
  38   17   37 1

#	End of record

