#	Name: ASD01918055
#	Creating user name:	WinNT
#	Creation time:	15. 06. 2019 20:10

#	Modifying user name:	WinNT
#	Modification time:	15. 06. 2019 20:10

#	Program:	/corina/corina34_cracker 3.40 0067  02.08.2006

@<TRIPOS>MOLECULE
ASD01918055
  49   52    0    0    0
SMALL
NO_CHARGES


@<TRIPOS>ATOM
   1 C1            -0.0421     1.3546     0.1144 C.ar    
   2 C2            -0.0309    -0.0326     0.1287 C.ar    
   3 C3             1.1717    -0.7124     0.1314 C.ar    
   4 C4             2.3635    -0.0115     0.1199 C.ar    
   5 C5             2.3549     1.3711     0.1061 C.ar    
   6 C6             1.1550     2.0556     0.1029 C.ar    
   7 O7            -1.2239     2.0256     0.1061 O.3     
   8 C8            -1.1593     3.4531     0.0915 C.3     
   9 C9            -2.5559     4.0191     0.0840 C.2     
  10 N10           -3.2610     4.3152     1.1414 N.2     
  11 C11           -4.4482     4.7920     0.7440 C.2     
  12 C12           -4.4585     4.7858    -0.6028 C.2     
  13 O13           -3.2764     4.3066    -1.0116 O.3     
  14 C14           -5.5947     5.2573     1.6056 C.3     
  15 C15           -6.5392     6.1137     0.7529 C.3     
  16 N16           -6.7683     5.4423    -0.5352 N.am    
  17 C17           -5.6190     5.2614    -1.4416 C.3     
  18 C18           -7.9964     5.0060    -0.8785 C.2     
  19 O19           -8.9089     5.0667    -0.0775 O.2     
  20 C20           -8.2337     4.4540    -2.2280 C.ar    
  21 C21           -7.5584     4.9828    -3.3301 C.ar    
  22 C22           -7.7836     4.4640    -4.5871 C.ar    
  23 C23           -8.6787     3.4190    -4.7584 C.ar    
  24 C24           -9.3522     2.8906    -3.6677 C.ar    
  25 C25           -9.1298     3.3977    -2.4054 C.ar    
  26 F26           -8.8958     2.9143    -5.9926 F       
  27 C27           -6.3525     4.0444     2.1491 C.3     
  28 C28           -5.0557     6.0920     2.7691 C.3     
  29 H29           -0.9615    -0.5806     0.1381 H       
  30 H30            1.1810    -1.7923     0.1429 H       
  31 H31            3.3026    -0.5448     0.1221 H       
  32 H32            3.2872     1.9163     0.0975 H       
  33 H33            1.1489     3.1355     0.0914 H       
  34 H34           -0.6306     3.8020     0.9786 H       
  35 H35           -0.6285     3.7837    -0.8013 H       
  36 H36           -7.4890     6.2369     1.2735 H       
  37 H37           -6.0883     7.0907     0.5794 H       
  38 H38           -5.3704     6.2118    -1.9138 H       
  39 H39           -5.8554     4.5183    -2.2032 H       
  40 H40           -6.8612     5.7969    -3.1978 H       
  41 H41           -7.2621     4.8724    -5.4401 H       
  42 H42          -10.0486     2.0769    -3.8067 H       
  43 H43           -9.6511     2.9820    -1.5558 H       
  44 H44           -5.6769     3.4310     2.7453 H       
  45 H45           -7.1809     4.3827     2.7717 H       
  46 H46           -6.7398     3.4554     1.3177 H       
  47 H47           -4.5215     6.9579     2.3782 H       
  48 H48           -5.8859     6.4274     3.3908 H       
  49 H49           -4.3759     5.4852     3.3672 H       
@<TRIPOS>BOND
   1    1    2 ar
   2    1    6 ar
   3    1    7 1
   4    2    3 ar
   5    2   29 1
   6    3    4 ar
   7    3   30 1
   8    4    5 ar
   9    4   31 1
  10    5    6 ar
  11    5   32 1
  12    6   33 1
  13    7    8 1
  14    8    9 1
  15    8   34 1
  16    8   35 1
  17    9   10 2
  18    9   13 1
  19   10   11 1
  20   11   14 1
  21   11   12 2
  22   12   13 1
  23   12   17 1
  24   14   15 1
  25   14   27 1
  26   14   28 1
  27   15   16 1
  28   15   36 1
  29   15   37 1
  30   16   17 1
  31   16   18 am
  32   17   38 1
  33   17   39 1
  34   18   19 2
  35   18   20 1
  36   20   21 ar
  37   20   25 ar
  38   21   22 ar
  39   21   40 1
  40   22   23 ar
  41   22   41 1
  42   23   24 ar
  43   23   26 1
  44   24   25 ar
  45   24   42 1
  46   25   43 1
  47   27   44 1
  48   27   45 1
  49   27   46 1
  50   28   47 1
  51   28   48 1
  52   28   49 1

#	End of record

