#	Name: ASD00431199
#	Creating user name:	WinNT
#	Creation time:	15. 06. 2019 18:35

#	Modifying user name:	WinNT
#	Modification time:	15. 06. 2019 18:35

#	Program:	/corina/corina34_cracker 3.40 0067  02.08.2006

@<TRIPOS>MOLECULE
ASD00431199
  49   52    0    0    0
SMALL
NO_CHARGES


@<TRIPOS>ATOM
   1 C1            -0.3815     1.6814    -0.5688 C.2     
   2 C2            -0.6011     0.2275    -0.8990 C.3     
   3 O3             0.7296     2.0785    -0.2883 O.2     
   4 N4            -1.4190     2.5415    -0.5907 N.am    
   5 C5            -1.2056     3.9549    -0.2697 C.3     
   6 C6            -0.7510     4.7002    -1.5262 C.3     
   7 O7            -3.7072     4.3907    -0.3019 O.3     
   8 N8            -4.5319     5.0076     0.3388 N.2     
   9 C9            -3.9524     5.6272     1.3383 C.2     
  10 N10           -2.6312     5.3375     1.2738 N.2     
  11 C11           -2.4930     4.5558     0.2326 C.2     
  12 S12           -3.8254     7.3090     3.6835 S.3     
  13 C13           -5.3277     7.9509     4.1869 C.2     
  14 N14           -6.2761     7.5503     3.3968 N.2     
  15 C15           -5.9340     6.7632     2.4011 C.2     
  16 C16           -4.6155     6.4800     2.3446 C.2     
  17 O17           -5.5032     8.7611     5.2576 O.3     
  18 C18           -6.7744     9.1051     5.5964 C.ar    
  19 C19           -7.5904     8.1900     6.2461 C.ar    
  20 C20           -8.8821     8.5389     6.5906 C.ar    
  21 C21           -9.3632     9.8069     6.2864 C.ar    
  22 C22           -8.5455    10.7212     5.6368 C.ar    
  23 C23           -7.2526    10.3722     5.2974 C.ar    
  24 N24          -10.6719    10.1615     6.6344 N.pl3   
  25 C25          -11.1786    11.4981     6.3136 C.3     
  26 C26          -12.6242    11.6255     6.7984 C.3     
  27 C27          -13.2974    12.9925     6.6613 C.3     
  28 C28          -13.7078    11.8419     5.7402 C.3     
  29 Cl29          -9.9037     7.3940     7.4024 Cl      
  30 H30            0.3467    -0.3069    -0.8341 H       
  31 H31           -1.3099    -0.2027    -0.1916 H       
  32 H32           -0.9987     0.1406    -1.9102 H       
  33 H33           -2.3069     2.2247    -0.8190 H       
  34 H34           -0.4395     4.0408     0.5008 H       
  35 H35           -0.5922     5.7518    -1.2874 H       
  36 H36            0.1802     4.2655    -1.8896 H       
  37 H37           -1.5171     4.6143    -2.2968 H       
  38 H38           -6.6474     6.3757     1.6889 H       
  39 H39           -7.2160     7.2049     6.4822 H       
  40 H40           -8.9187    11.7066     5.3998 H       
  41 H41           -6.6151    11.0852     4.7957 H       
  42 H42          -11.2433     9.5222     7.0880 H       
  43 H43          -10.5621    12.2488     6.8080 H       
  44 H44          -11.1424    11.6512     5.2350 H       
  45 H45          -12.8832    11.0219     7.6683 H       
  46 H46          -13.9996    13.2882     7.4408 H       
  47 H47          -12.7105    13.8012     6.2256 H       
  48 H48          -13.3909    11.8935     4.6985 H       
  49 H49          -14.6800    11.3805     5.9137 H       
@<TRIPOS>BOND
   1    1    2 1
   2    1    3 2
   3    1    4 am
   4    2   30 1
   5    2   31 1
   6    2   32 1
   7    4    5 1
   8    4   33 1
   9    5    6 1
  10    5   11 1
  11    5   34 1
  12    6   35 1
  13    6   36 1
  14    6   37 1
  15    7    8 1
  16    7   11 1
  17    8    9 2
  18    9   10 1
  19    9   16 1
  20   10   11 2
  21   12   13 1
  22   12   16 1
  23   13   14 2
  24   13   17 1
  25   14   15 1
  26   15   16 2
  27   15   38 1
  28   17   18 1
  29   18   19 ar
  30   18   23 ar
  31   19   20 ar
  32   19   39 1
  33   20   21 ar
  34   20   29 1
  35   21   22 ar
  36   21   24 1
  37   22   23 ar
  38   22   40 1
  39   23   41 1
  40   24   25 1
  41   24   42 1
  42   25   26 1
  43   25   43 1
  44   25   44 1
  45   26   27 1
  46   26   28 1
  47   26   45 1
  48   27   28 1
  49   27   46 1
  50   27   47 1
  51   28   48 1
  52   28   49 1

#	End of record

