#	Name: ASD02430001
#	Creating user name:	WinNT
#	Creation time:	15. 06. 2019 20:21

#	Modifying user name:	WinNT
#	Modification time:	15. 06. 2019 20:21

#	Program:	/corina/corina34_cracker 3.40 0067  02.08.2006

@<TRIPOS>MOLECULE
ASD02430001
  49   50    0    0    0
SMALL
NO_CHARGES


@<TRIPOS>ATOM
   1 C1            -0.0187     1.5275     0.0104 C.3     
   2 C2             0.0021    -0.0041     0.0020 C.3     
   3 C3            -1.4376    -0.5229    -0.0657 C.3     
   4 C4            -2.1224     0.0557    -1.3066 C.3     
   5 O5            -2.0797     1.4830    -1.2507 O.3     
   6 C6            -0.7584     2.0269    -1.2334 C.3     
   7 O7            -1.4431    -0.3958    -2.4800 O.3     
   8 C8            -1.0094     0.1575    -4.7921 C.3     
   9 C9            -2.0710    -0.0036    -3.7022 C.3     
  10 C10           -3.0777    -1.0753    -4.1253 C.3     
  11 C11           -3.7499    -0.6553    -5.4340 C.3     
  12 C12           -2.6883    -0.4942    -6.5239 C.3     
  13 C13           -1.6816     0.5774    -6.1008 C.3     
  14 O14            1.3215     2.0234     0.0003 O.3     
  15 C15           -0.8359     3.5547    -1.2020 C.3     
  16 O16           -1.4231     4.0269    -2.4161 O.3     
  17 O17            0.7307    -0.4660    -1.1371 O.3     
  18 N18           -1.4274    -1.9895    -0.1495 N.3     
  19 O19           -0.0691     1.1584    -4.3970 O.3     
  20 O20           -2.3608     1.8202    -5.9100 O.3     
  21 O21           -2.0091    -1.7370    -6.7146 O.3     
  22 O22           -4.6902    -1.6563    -5.8291 O.3     
  23 O23           -2.3985    -2.3180    -4.3161 O.3     
  24 C24            1.2480     0.9545    -4.9125 C.3     
  25 H25           -0.5307     1.8800     0.9058 H       
  26 H26            0.4781    -0.3673     0.9128 H       
  27 H27           -1.9789    -0.2128     0.8282 H       
  28 H28           -3.1603    -0.2760    -1.3369 H       
  29 H29           -0.2224     1.7083    -2.1275 H       
  30 H30           -0.4913    -0.7904    -4.9377 H       
  31 H31           -2.5891     0.9443    -3.5567 H       
  32 H32           -3.8340    -1.1900    -3.3488 H       
  33 H33           -4.2680     0.2926    -5.2884 H       
  34 H34           -3.1672    -0.1951    -7.4562 H       
  35 H35           -0.9253     0.6922    -6.8773 H       
  36 H36            1.3839     2.9883     0.0049 H       
  37 H37           -1.4467     3.8701    -0.3562 H       
  38 H38            0.1678     3.9673    -1.0993 H       
  39 H39           -1.5038     4.9893    -2.4657 H       
  40 H40            1.6505    -0.1687    -1.1628 H       
  41 H41           -2.3666    -2.3555    -0.1952 H       
  42 H42           -0.8784    -2.3029    -0.9359 H       
  43 H43           -2.8109     2.1478    -6.7007 H       
  44 H44           -2.5871    -2.4637    -6.9845 H       
  45 H45           -5.1551    -1.4558    -6.6529 H       
  46 H46           -2.9765    -3.0447    -4.5859 H       
  47 H47            1.9013     1.7559    -4.5675 H       
  48 H48            1.6313    -0.0035    -4.5612 H       
  49 H49            1.2159     0.9555    -6.0020 H       
@<TRIPOS>BOND
   1    1    2 1
   2    1   14 1
   3    1    6 1
   4    1   25 1
   5    2    3 1
   6    2   17 1
   7    2   26 1
   8    3   18 1
   9    3    4 1
  10    3   27 1
  11    4    5 1
  12    4    7 1
  13    4   28 1
  14    5    6 1
  15    6   15 1
  16    6   29 1
  17    7    9 1
  18    8    9 1
  19    8   19 1
  20    8   13 1
  21    8   30 1
  22    9   10 1
  23    9   31 1
  24   10   23 1
  25   10   11 1
  26   10   32 1
  27   11   22 1
  28   11   12 1
  29   11   33 1
  30   12   13 1
  31   12   21 1
  32   12   34 1
  33   13   20 1
  34   13   35 1
  35   14   36 1
  36   15   16 1
  37   15   37 1
  38   15   38 1
  39   16   39 1
  40   17   40 1
  41   18   41 1
  42   18   42 1
  43   19   24 1
  44   20   43 1
  45   21   44 1
  46   22   45 1
  47   23   46 1
  48   24   47 1
  49   24   48 1
  50   24   49 1

#	End of record

