#	Name: ASD01140405
#	Creating user name:	WinNT
#	Creation time:	15. 06. 2019 19:00

#	Modifying user name:	WinNT
#	Modification time:	15. 06. 2019 19:00

#	Program:	/corina/corina34_cracker 3.40 0067  02.08.2006

@<TRIPOS>MOLECULE
ASD01140405
  46   50    0    0    0
SMALL
NO_CHARGES


@<TRIPOS>ATOM
   1 C1            -0.0170     1.4031     0.0098 C.2     
   2 C2             0.0021    -0.0041     0.0020 C.2     
   3 C3             1.1978    -0.6509    -0.0129 C.2     
   4 C4             2.4012     0.0859    -0.0200 C.2     
   5 N5             2.3844     1.4010    -0.0127 N.2     
   6 N6             1.1720     2.0929     0.0021 N.pl3   
   7 N7            -0.4804     3.4868     0.0225 N.2     
   8 N8            -0.9878     2.3041     0.0186 N.2     
   9 C9             0.8374     3.4155     0.0119 C.2     
  10 N10            7.4347    -2.3975    -0.0759 N.pl3   
  11 C11            8.2483    -1.2974    -0.0784 C.2     
  12 C12            7.5063    -0.1790    -0.0668 C.2     
  13 C13            6.1021    -0.5976    -0.0561 C.ar    
  14 C14            4.8877     0.0875    -0.0422 C.ar    
  15 C15            3.6998    -0.6308    -0.0352 C.ar    
  16 C16            3.7254    -2.0298    -0.0421 C.ar    
  17 C17            4.9114    -2.7046    -0.0552 C.ar    
  18 C18            6.1154    -2.0052    -0.0624 C.ar    
  19 C19            7.8988    -3.7870    -0.0916 C.3     
  20 C20            7.9237    -4.3001    -1.5328 C.3     
  21 C21            8.4084    -5.7512    -1.5492 C.3     
  22 C22            1.7764     4.5567     0.0088 C.ar    
  23 C23            1.3177     5.8404    -0.2930 C.ar    
  24 C24            2.1998     6.9029    -0.2939 C.ar    
  25 C25            3.5395     6.6951     0.0042 C.ar    
  26 C26            3.9979     5.4231     0.3040 C.ar    
  27 C27            3.1237     4.3557     0.3132 C.ar    
  28 F28            4.3993     7.7372     0.0013 F       
  29 F29            1.7584     8.1460    -0.5856 F       
  30 H30           -0.9219    -0.5633     0.0082 H       
  31 H31            1.2266    -1.7305    -0.0190 H       
  32 H32            9.3279    -1.3250    -0.0876 H       
  33 H33            7.8743     0.8363    -0.0653 H       
  34 H34            4.8714     1.1674    -0.0365 H       
  35 H35            2.7969    -2.5813    -0.0365 H       
  36 H36            4.9162    -3.7846    -0.0600 H       
  37 H37            8.9025    -3.8396     0.3301 H       
  38 H38            7.2227    -4.4026     0.5016 H       
  39 H39            6.9199    -4.2476    -1.9546 H       
  40 H40            8.5997    -3.6845    -2.1261 H       
  41 H41            8.4261    -6.1168    -2.5759 H       
  42 H42            9.4121    -5.8038    -1.1275 H       
  43 H43            7.7323    -6.3669    -0.9560 H       
  44 H44            0.2755     6.0020    -0.5255 H       
  45 H45            5.0413     5.2670     0.5352 H       
  46 H46            3.4823     3.3652     0.5513 H       
@<TRIPOS>BOND
   1    1    2 1
   2    1    6 1
   3    1    8 2
   4    2    3 2
   5    2   30 1
   6    3    4 1
   7    3   31 1
   8    4    5 2
   9    4   15 1
  10    5    6 1
  11    6    9 1
  12    7    8 1
  13    7    9 2
  14    9   22 1
  15   10   11 1
  16   10   18 1
  17   10   19 1
  18   11   12 2
  19   11   32 1
  20   12   13 1
  21   12   33 1
  22   13   14 ar
  23   13   18 ar
  24   14   15 ar
  25   14   34 1
  26   15   16 ar
  27   16   17 ar
  28   16   35 1
  29   17   18 ar
  30   17   36 1
  31   19   20 1
  32   19   37 1
  33   19   38 1
  34   20   21 1
  35   20   39 1
  36   20   40 1
  37   21   41 1
  38   21   42 1
  39   21   43 1
  40   22   23 ar
  41   22   27 ar
  42   23   24 ar
  43   23   44 1
  44   24   25 ar
  45   24   29 1
  46   25   26 ar
  47   25   28 1
  48   26   27 ar
  49   26   45 1
  50   27   46 1

#	End of record

