#	Name: ASD01630002
#	Creating user name:	WinNT
#	Creation time:	15. 06. 2019 19:22

#	Modifying user name:	WinNT
#	Modification time:	15. 06. 2019 19:22

#	Program:	/corina/corina34_cracker 3.40 0067  02.08.2006

@<TRIPOS>MOLECULE
ASD01630002
  43   44    0    0    0
SMALL
NO_CHARGES


@<TRIPOS>ATOM
   1 C1             2.9445     1.2402    -1.3266 C.2     
   2 C2             3.0717    -0.2350    -1.0461 C.3     
   3 C3             2.5185    -1.0290    -2.2312 C.3     
   4 C4             2.6456    -2.5042    -1.9507 C.2     
   5 C5             1.6353    -3.1632    -1.4398 C.2     
   6 C6             1.8039    -4.6047    -1.0338 C.3     
   7 O7             2.4611     1.6177    -2.3676 O.2     
   8 O8             3.3633     2.1347    -0.4177 O.3     
   9 C9             3.9350    -3.2213    -2.2579 C.3     
  10 O10           -1.2604    -7.9608    -5.1021 O.3     
  11 C11           -2.0325    -7.8283    -3.8772 C.3     
  12 C12           -1.1999    -6.9896    -2.9396 C.ar    
  13 C13           -0.0222    -6.6806    -3.6320 C.ar    
  14 C14           -0.0994    -7.2985    -4.9618 C.2     
  15 C15            0.9611    -5.8987    -3.0059 C.ar    
  16 C16            0.7536    -5.4443    -1.7143 C.ar    
  17 C17           -0.4199    -5.7616    -1.0460 C.ar    
  18 C18           -1.3939    -6.5379    -1.6702 C.ar    
  19 O19            0.7639    -7.2222    -5.8140 O.2     
  20 C20           -2.6662    -6.8785    -0.9378 C.3     
  21 O21           -0.6195    -5.3150     0.2198 O.3     
  22 C22           -1.3629    -4.1039     0.3707 C.3     
  23 O23            2.1077    -5.5904    -3.6618 O.3     
  24 H24            4.1216    -0.4875    -0.8979 H       
  25 H25            2.5077    -0.4838    -0.1471 H       
  26 H26            1.4686    -0.7765    -2.3794 H       
  27 H27            3.0825    -0.7802    -3.1302 H       
  28 H28            0.6816    -2.6735    -1.3096 H       
  29 H29            2.7940    -4.9519    -1.3290 H       
  30 H30            1.6953    -4.6928     0.0472 H       
  31 H31            3.2611     3.0697    -0.6424 H       
  32 H32            4.5567    -3.2504    -1.3630 H       
  33 H33            3.7166    -4.2388    -2.5818 H       
  34 H34            4.4644    -2.6932    -3.0510 H       
  35 H35           -2.9797    -7.3302    -4.0839 H       
  36 H36           -2.2130    -8.8106    -3.4405 H       
  37 H37           -2.5319    -7.8118    -0.3910 H       
  38 H38           -2.9077    -6.0788    -0.2378 H       
  39 H39           -3.4792    -6.9914    -1.6551 H       
  40 H40           -2.3190    -4.1980    -0.1442 H       
  41 H41           -1.5377    -3.9145     1.4298 H       
  42 H42           -0.7991    -3.2756    -0.0583 H       
  43 H43            2.0612    -4.7694    -4.1705 H       
@<TRIPOS>BOND
   1    1    2 1
   2    1    7 2
   3    1    8 1
   4    2    3 1
   5    2   24 1
   6    2   25 1
   7    3    4 1
   8    3   26 1
   9    3   27 1
  10    4    5 2
  11    4    9 1
  12    5    6 1
  13    5   28 1
  14    6   16 1
  15    6   29 1
  16    6   30 1
  17    8   31 1
  18    9   32 1
  19    9   33 1
  20    9   34 1
  21   10   11 1
  22   10   14 1
  23   11   12 1
  24   11   35 1
  25   11   36 1
  26   12   13 ar
  27   12   18 ar
  28   13   14 1
  29   13   15 ar
  30   14   19 2
  31   15   16 ar
  32   15   23 1
  33   16   17 ar
  34   17   18 ar
  35   17   21 1
  36   18   20 1
  37   20   37 1
  38   20   38 1
  39   20   39 1
  40   21   22 1
  41   22   40 1
  42   22   41 1
  43   22   42 1
  44   23   43 1

#	End of record

