#	Name: ASD03730879
#	Creating user name:	WinNT
#	Creation time:	15. 06. 2019 20:44

#	Modifying user name:	WinNT
#	Modification time:	15. 06. 2019 20:44

#	Program:	/corina/corina34_cracker 3.40 0067  02.08.2006

@<TRIPOS>MOLECULE
ASD03730879
  47   52    0    0    0
SMALL
NO_CHARGES


@<TRIPOS>ATOM
   1 C1            -0.0179     1.4690     0.0101 C.2     
   2 C2             0.0021    -0.0041     0.0020 C.ar    
   3 C3            -1.1970    -0.7230     0.0096 C.ar    
   4 C4            -1.1703    -2.1015     0.0015 C.ar    
   5 C5             0.0396    -2.7737    -0.0142 C.ar    
   6 C6             1.2305    -2.0691    -0.0218 C.ar    
   7 C7             1.2198    -0.6898    -0.0191 C.ar    
   8 O8             1.0243     2.0897     0.0035 O.2     
   9 Cl9           -1.5329     2.3164     0.0219 Cl      
  10 C10           -2.4616    -2.8784     0.0101 C.3     
  11 O11            0.9856    -3.2275    -6.2896 O.3     
  12 C12            1.0326    -3.4651    -7.7089 C.3     
  13 O13            0.1582    -4.5936    -7.8961 O.3     
  14 C14           -0.7412    -4.5336    -6.8702 C.ar    
  15 C15           -0.2314    -3.6942    -5.8823 C.ar    
  16 C16           -1.9742    -5.1363    -6.6971 C.ar    
  17 C17           -2.7123    -4.9120    -5.5389 C.ar    
  18 C18           -2.1888    -4.0781    -4.5554 C.ar    
  19 C19           -0.9625    -3.4708    -4.7277 C.ar    
  20 O20           -3.9396    -5.3875    -5.1814 O.3     
  21 C21           -3.1909    -4.0579    -3.4323 C.3     
  22 C22           -4.1085    -5.2443    -3.7579 C.3     
  23 N23           -2.8940    -3.1222    -1.3682 N.am    
  24 C24           -2.5401    -4.2060    -2.0873 C.2     
  25 C25           -3.9493    -2.7654    -3.3671 C.ar    
  26 C26           -4.7407    -2.0804    -4.2619 C.ar    
  27 C27           -5.3197    -0.8784    -3.8960 C.ar    
  28 C28           -5.1011    -0.3662    -2.6300 C.ar    
  29 C29           -4.3084    -1.0481    -1.7305 C.ar    
  30 C30           -3.7218    -2.2590    -2.0900 C.ar    
  31 O31           -1.8345    -5.1216    -1.7198 O.2     
  32 H32           -2.1418    -0.1999     0.0222 H       
  33 H33            0.0543    -3.8535    -0.0201 H       
  34 H34            2.1707    -2.6004    -0.0336 H       
  35 H35            2.1500    -0.1412    -0.0293 H       
  36 H36           -2.3090    -3.8312     0.5170 H       
  37 H37           -3.2264    -2.3060     0.5350 H       
  38 H38            0.6610    -2.5980    -8.2549 H       
  39 H39            2.0472    -3.7106    -8.0227 H       
  40 H40           -2.3667    -5.7853    -7.4660 H       
  41 H41           -0.5713    -2.8197    -3.9600 H       
  42 H42           -5.1446    -5.0111    -3.5125 H       
  43 H43           -3.7789    -6.1430    -3.2365 H       
  44 H44           -4.9099    -2.4821    -5.2500 H       
  45 H45           -5.9412    -0.3413    -4.5973 H       
  46 H46           -5.5530     0.5722    -2.3445 H       
  47 H47           -4.1419    -0.6415    -0.7439 H       
@<TRIPOS>BOND
   1    1    2 1
   2    1    8 2
   3    1    9 1
   4    2    3 ar
   5    2    7 ar
   6    3    4 ar
   7    3   32 1
   8    4    5 ar
   9    4   10 1
  10    5    6 ar
  11    5   33 1
  12    6    7 ar
  13    6   34 1
  14    7   35 1
  15   10   23 1
  16   10   36 1
  17   10   37 1
  18   11   12 1
  19   11   15 1
  20   12   13 1
  21   12   38 1
  22   12   39 1
  23   13   14 1
  24   14   15 ar
  25   14   16 ar
  26   15   19 ar
  27   16   17 ar
  28   16   40 1
  29   17   18 ar
  30   17   20 1
  31   18   19 ar
  32   18   21 1
  33   19   41 1
  34   20   22 1
  35   21   22 1
  36   21   24 1
  37   21   25 1
  38   22   42 1
  39   22   43 1
  40   23   24 am
  41   23   30 1
  42   24   31 2
  43   25   26 ar
  44   25   30 ar
  45   26   27 ar
  46   26   44 1
  47   27   28 ar
  48   27   45 1
  49   28   29 ar
  50   28   46 1
  51   29   30 ar
  52   29   47 1

#	End of record

