#	Name: ASD01140285
#	Creating user name:	WinNT
#	Creation time:	15. 06. 2019 19:00

#	Modifying user name:	WinNT
#	Modification time:	15. 06. 2019 19:00

#	Program:	/corina/corina34_cracker 3.40 0067  02.08.2006

@<TRIPOS>MOLECULE
ASD01140285
  36   39    0    0    0
SMALL
NO_CHARGES


@<TRIPOS>ATOM
   1 C1            -0.0169     1.3939     0.0097 C.ar    
   2 C2             0.0021    -0.0041     0.0020 C.ar    
   3 C3             1.2197    -0.6844     0.0056 C.ar    
   4 C4             2.4026     0.0366     0.0159 C.ar    
   5 C5             2.3791     1.4461    -0.0144 C.ar    
   6 C6             1.1604     2.1101     0.0023 C.ar    
   7 C7             3.7236    -0.6493     0.0939 C.2     
   8 N8             4.6016    -0.3852    -0.8107 N.2     
   9 C9             4.4461     0.6468    -1.8307 C.3     
  10 C10            4.5797     2.0217    -1.1871 C.3     
  11 N11            3.5758     2.1155    -0.0995 N.pl3   
  12 C12            4.2027     2.8665     0.8855 C.2     
  13 N13            5.8411     2.2756    -0.5047 N.pl3   
  14 N14            5.4734     2.9323     0.6848 N.2     
  15 C15            4.0190    -1.6086     1.1828 C.ar    
  16 C16            5.2617    -2.2424     1.2409 C.ar    
  17 C17            3.0591    -1.8785     2.1579 C.ar    
  18 C18            3.3403    -2.7729     3.1703 C.ar    
  19 C19            4.5717    -3.4017     3.2203 C.ar    
  20 C20            5.5305    -3.1356     2.2596 C.ar    
  21 Cl21           6.4657    -1.9090     0.0356 Cl      
  22 C22           -1.2280    -0.7371    -0.0090 C.1     
  23 C23           -2.2365    -1.3381    -0.0181 C.1     
  24 H24           -0.9619     1.9167     0.0170 H       
  25 H25            1.2402    -1.7642     0.0007 H       
  26 H26            1.1347     3.1898     0.0091 H       
  27 H27            5.2174     0.5251    -2.5912 H       
  28 H28            3.4630     0.5559    -2.2925 H       
  29 H29            4.3939     2.7973    -1.9301 H       
  30 H30            3.6910     3.3353     1.7131 H       
  31 H31            6.7345     2.0438    -0.8030 H       
  32 H32            2.0976    -1.3881     2.1209 H       
  33 H33            2.5974    -2.9823     3.9257 H       
  34 H34            4.7865    -4.1006     4.0152 H       
  35 H35            6.4898    -3.6296     2.3041 H       
  36 H36           -3.1384    -1.8756    -0.0262 H       
@<TRIPOS>BOND
   1    1    2 ar
   2    1    6 ar
   3    1   24 1
   4    2    3 ar
   5    2   22 1
   6    3    4 ar
   7    3   25 1
   8    4    5 ar
   9    4    7 1
  10    5    6 ar
  11    5   11 1
  12    6   26 1
  13    7    8 2
  14    7   15 1
  15    8    9 1
  16    9   10 1
  17    9   27 1
  18    9   28 1
  19   10   11 1
  20   10   13 1
  21   10   29 1
  22   11   12 1
  23   12   14 2
  24   12   30 1
  25   13   14 1
  26   13   31 1
  27   15   16 ar
  28   15   17 ar
  29   16   21 1
  30   16   20 ar
  31   17   18 ar
  32   17   32 1
  33   18   19 ar
  34   18   33 1
  35   19   20 ar
  36   19   34 1
  37   20   35 1
  38   22   23 3
  39   23   36 1

#	End of record

