#	Name: ASD01900613
#	Creating user name:	WinNT
#	Creation time:	15. 06. 2019 19:52

#	Modifying user name:	WinNT
#	Modification time:	15. 06. 2019 19:52

#	Program:	/corina/corina34_cracker 3.40 0067  02.08.2006

@<TRIPOS>MOLECULE
ASD01900613
  40   43    0    0    0
SMALL
NO_CHARGES


@<TRIPOS>ATOM
   1 C1            -0.0165     1.3649     0.0095 C.2     
   2 N2             0.0021    -0.0041     0.0020 N.pl3   
   3 C3             1.3258    -0.3941    -0.0127 C.ar    
   4 C4             2.0842     0.7910    -0.0136 C.ar    
   5 N5             1.2097     1.8252     0.0003 N.2     
   6 C6             3.4809     0.7134    -0.0269 C.ar    
   7 C7             4.0950    -0.5064    -0.0390 C.ar    
   8 C8             3.3468    -1.6764    -0.0381 C.ar    
   9 C9             1.9677    -1.6247    -0.0251 C.ar    
  10 C10           -1.2387     2.1993     0.0201 C.ar    
  11 C11           -1.1271     3.5893     0.0271 C.ar    
  12 C12           -2.2795     4.3562     0.0370 C.ar    
  13 C13           -3.5064     3.7082     0.0395 C.ar    
  14 C14           -3.5436     2.3250     0.0322 C.ar    
  15 N15           -2.4326     1.6186     0.0174 N.ar    
  16 S16            5.8546    -0.5967    -0.0563 S.o2    
  17 O17            6.1499    -1.4734    -1.1349 O.2     
  18 O18            6.2749     0.7606    -0.0793 O.2     
  19 C19            6.2839    -1.3692     1.5278 C.3     
  20 C20            7.7813    -1.5024     1.6323 C.ar    
  21 C21            8.5300    -0.4806     2.1921 C.ar    
  22 C22            9.9053    -0.6039     2.2881 C.ar    
  23 C23           10.5304    -1.7477     1.8248 C.ar    
  24 C24            9.7810    -2.7675     1.2659 C.ar    
  25 C25            8.4068    -2.6465     1.1748 C.ar    
  26 F26            7.9184     0.6361     2.6438 F       
  27 Cl27          12.2553    -1.9032     1.9442 Cl      
  28 Cl28           4.1516    -3.2145    -0.0541 Cl      
  29 H29           -0.7707    -0.5903     0.0065 H       
  30 H30            4.0727     1.6168    -0.0281 H       
  31 H31            1.3907    -2.5375    -0.0241 H       
  32 H32           -0.1555     4.0608     0.0252 H       
  33 H33           -2.2249     5.4348     0.0429 H       
  34 H34           -4.4238     4.2780     0.0475 H       
  35 H35           -4.4972     1.8179     0.0341 H       
  36 H36            5.9163    -0.7495     2.3457 H       
  37 H37            5.8263    -2.3568     1.5862 H       
  38 H38           10.4901     0.1925     2.7241 H       
  39 H39           10.2693    -3.6603     0.9043 H       
  40 H40            7.8222    -3.4449     0.7421 H       
@<TRIPOS>BOND
   1    1    2 1
   2    1    5 2
   3    1   10 1
   4    2    3 1
   5    2   29 1
   6    3    4 ar
   7    3    9 ar
   8    4    5 1
   9    4    6 ar
  10    6    7 ar
  11    6   30 1
  12    7    8 ar
  13    7   16 1
  14    8    9 ar
  15    8   28 1
  16    9   31 1
  17   10   11 ar
  18   10   15 ar
  19   11   12 ar
  20   11   32 1
  21   12   13 ar
  22   12   33 1
  23   13   14 ar
  24   13   34 1
  25   14   15 ar
  26   14   35 1
  27   16   17 2
  28   16   18 2
  29   16   19 1
  30   19   20 1
  31   19   36 1
  32   19   37 1
  33   20   21 ar
  34   20   25 ar
  35   21   22 ar
  36   21   26 1
  37   22   23 ar
  38   22   38 1
  39   23   24 ar
  40   23   27 1
  41   24   25 ar
  42   24   39 1
  43   25   40 1

#	End of record

