#	Name: ASD03092555
#	Creating user name:	WinNT
#	Creation time:	15. 06. 2019 20:32

#	Modifying user name:	WinNT
#	Modification time:	15. 06. 2019 20:32

#	Program:	/corina/corina34_cracker 3.40 0067  02.08.2006

@<TRIPOS>MOLECULE
ASD03092555
  35   37    0    0    0
SMALL
NO_CHARGES


@<TRIPOS>ATOM
   1 O1            -0.0161     1.3324     0.0094 O.3     
   2 C2             0.0021    -0.0041     0.0020 C.2     
   3 N3             1.2416    -0.4158    -0.0120 N.2     
   4 C4             2.0531     0.6467    -0.0141 C.2     
   5 C5             1.2677     1.7611    -0.0006 C.2     
   6 C6             1.7255     3.1551     0.0021 C.2     
   7 O7             2.9165     3.4043    -0.0083 O.2     
   8 N8             0.8269     4.1594     0.0161 N.am    
   9 C9             1.2840     5.5513     0.0188 C.3     
  10 N10           -3.1658     8.9885     0.3536 N.pl3   
  11 C11           -3.2860     9.0843     1.7132 C.2     
  12 C12           -2.3340     8.3496     2.3097 C.2     
  13 C13           -1.5391     7.7329     1.2450 C.ar    
  14 C14           -0.4339     6.8796     1.2290 C.ar    
  15 C15            0.0909     6.4718     0.0353 C.ar    
  16 C16           -0.4658     6.8990    -1.1626 C.ar    
  17 C17           -1.5559     7.7411    -1.1699 C.ar    
  18 C18           -2.1066     8.1690     0.0340 C.ar    
  19 C19           -4.3320     9.8950     2.4343 C.3     
  20 C20           -1.2140    -0.8942     0.0088 C.3     
  21 H21            3.1328     0.6260    -0.0242 H       
  22 H22           -0.1225     3.9607     0.0244 H       
  23 H23            1.8942     5.7316     0.9038 H       
  24 H24            1.8767     5.7408    -0.8761 H       
  25 H25           -3.7434     9.4289    -0.2893 H       
  26 H26           -2.1827     8.2350     3.3729 H       
  27 H27            0.0050     6.5439     2.1569 H       
  28 H28           -0.0398     6.5680    -2.0982 H       
  29 H29           -1.9816     8.0682    -2.1070 H       
  30 H30           -5.2128     9.2775     2.6102 H       
  31 H31           -3.9320    10.2377     3.3885 H       
  32 H32           -4.6076    10.7562     1.8255 H       
  33 H33           -1.5170    -1.1032    -1.0171 H       
  34 H34           -0.9766    -1.8297     0.5154 H       
  35 H35           -2.0278    -0.3934     0.5332 H       
@<TRIPOS>BOND
   1    1    2 1
   2    1    5 1
   3    2    3 2
   4    2   20 1
   5    3    4 1
   6    4    5 2
   7    4   21 1
   8    5    6 1
   9    6    7 2
  10    6    8 am
  11    8    9 1
  12    8   22 1
  13    9   15 1
  14    9   23 1
  15    9   24 1
  16   10   11 1
  17   10   18 1
  18   10   25 1
  19   11   12 2
  20   11   19 1
  21   12   13 1
  22   12   26 1
  23   13   14 ar
  24   13   18 ar
  25   14   15 ar
  26   14   27 1
  27   15   16 ar
  28   16   17 ar
  29   16   28 1
  30   17   18 ar
  31   17   29 1
  32   19   30 1
  33   19   31 1
  34   19   32 1
  35   20   33 1
  36   20   34 1
  37   20   35 1

#	End of record

