#	Name: ASD01948231
#	Creating user name:	WinNT
#	Creation time:	15. 06. 2019 20:14

#	Modifying user name:	WinNT
#	Modification time:	15. 06. 2019 20:14

#	Program:	/corina/corina34_cracker 3.40 0067  02.08.2006

@<TRIPOS>MOLECULE
ASD01948231
  30   31    0    0    0
SMALL
NO_CHARGES


@<TRIPOS>ATOM
   1 C1            -0.4755     0.7337     1.4102 C.ar    
   2 C2             0.0262     0.0562     0.3088 C.ar    
   3 C3            -0.6882     0.0344    -0.8773 C.ar    
   4 C4            -1.9052     0.6885    -0.9661 C.ar    
   5 C5            -2.4108     1.3682     0.1369 C.ar    
   6 C6            -1.6962     1.3855     1.3267 C.ar    
   7 F7            -2.6011     0.6669    -2.1238 F       
   8 C8            -4.7895     0.0024     0.6786 C.ar    
   9 C9            -4.8294     1.3272     0.2661 C.ar    
  10 N10           -3.6396     2.0298     0.0486 N.pl3   
  11 C11           -5.9664    -0.6894     0.8923 C.ar    
  12 C12           -7.1841    -0.0641     0.6958 C.ar    
  13 C13           -7.2291     1.2564     0.2846 C.ar    
  14 C14           -6.0556     1.9545     0.0690 C.ar    
  15 N15           -2.2320     2.1082     2.5023 N.pl3   
  16 F16           -6.0993     3.2439    -0.3321 F       
  17 I17           -8.9649    -1.1185     1.0214 I       
  18 F18           -0.1970    -0.6255    -1.9489 F       
  19 O19           -2.9503     1.5293     3.2976 O.2     
  20 O20           -1.9546     3.2816     2.6742 O.2     
  21 O21            0.2274     0.7539     2.5735 O.3     
  22 C22            1.4745     0.0564     2.5902 C.3     
  23 H23            0.9753    -0.4546     0.3762 H       
  24 H24           -3.8393    -0.4886     0.8282 H       
  25 H25           -3.6669     2.9760    -0.1634 H       
  26 H26           -5.9352    -1.7203     1.2129 H       
  27 H27           -8.1816     1.7417     0.1313 H       
  28 H28            1.9310     0.1517     3.5754 H       
  29 H29            1.3045    -0.9973     2.3690 H       
  30 H30            2.1393     0.4826     1.8389 H       
@<TRIPOS>BOND
   1    1    2 ar
   2    1   21 1
   3    1    6 ar
   4    2    3 ar
   5    2   23 1
   6    3    4 ar
   7    3   18 1
   8    4    5 ar
   9    4    7 1
  10    5    6 ar
  11    5   10 1
  12    6   15 1
  13    8    9 ar
  14    8   11 ar
  15    8   24 1
  16    9   10 1
  17    9   14 ar
  18   10   25 1
  19   11   12 ar
  20   11   26 1
  21   12   13 ar
  22   12   17 1
  23   13   14 ar
  24   13   27 1
  25   14   16 1
  26   15   19 2
  27   15   20 2
  28   21   22 1
  29   22   28 1
  30   22   29 1
  31   22   30 1

#	End of record

