#	Name: ASD01180047
#	Creating user name:	WinNT
#	Creation time:	15. 06. 2019 19:06

#	Modifying user name:	WinNT
#	Modification time:	15. 06. 2019 19:06

#	Program:	/corina/corina34_cracker 3.40 0067  02.08.2006

@<TRIPOS>MOLECULE
ASD01180047
 107  114    0    0    0
SMALL
NO_CHARGES


@<TRIPOS>ATOM
   1 C1            -4.5241     2.4558    -3.6352 C.ar    
   2 C2            -4.0784     1.2033    -3.2538 C.ar    
   3 C3            -4.9726     0.1544    -3.1469 C.ar    
   4 C4            -6.3122     0.3565    -3.4210 C.ar    
   5 C5            -6.7594     1.6077    -3.8028 C.ar    
   6 C6            -5.8672     2.6597    -3.9043 C.ar    
   7 Cl7           -6.4283     4.2311    -4.3832 Cl      
   8 Cl8           -3.4017     3.7733    -3.7697 Cl      
   9 C9            -4.4864    -1.2103    -2.7317 C.3     
  10 O10           -4.5489    -1.3256    -1.3088 O.3     
  11 C11           -4.1428    -2.5039    -0.7669 C.ar    
  12 C12           -4.1769    -2.6847     0.6082 C.ar    
  13 C13           -3.7635    -3.8834     1.1566 C.ar    
  14 C14           -3.3160    -4.9024     0.3362 C.ar    
  15 C15           -3.2806    -4.7246    -1.0345 C.ar    
  16 C16           -3.6988    -3.5300    -1.5882 C.ar    
  17 C17           -3.9719    -7.2257     0.8140 C.2     
  18 C18           -2.8657    -6.2090     0.9371 C.3     
  19 O19           -1.7045    -6.6758     0.2454 O.3     
  20 C20           -1.8977    -7.1803    -1.0025 C.ar    
  21 C21           -3.0844    -7.8507    -1.2950 C.ar    
  22 N22           -4.0527    -7.9973    -0.2919 N.am    
  23 C23           -5.1420    -8.9648    -0.4455 C.3     
  24 O24           -4.7833    -7.3538     1.7065 O.2     
  25 C25           -0.9329    -7.0365    -1.9812 C.ar    
  26 C26           -1.1410    -7.5563    -3.2514 C.ar    
  27 C27           -2.3172    -8.2160    -3.5413 C.ar    
  28 C28           -3.2889    -8.3651    -2.5625 C.ar    
  29 C29           -0.0539    -7.3824    -4.2799 C.3     
  30 N30           -0.5829    -7.6040    -5.6292 N.3     
  31 C31           -1.2812    -8.8975    -5.6968 C.3     
  32 C32           -2.5877    -8.7852    -4.9106 C.3     
  33 C33            0.4872    -7.5303    -6.6329 C.3     
  34 N34           -1.9453   -10.4897    -7.4695 N.am    
  35 C35           -1.5826    -9.2358    -7.1341 C.2     
  36 O36           -1.4986    -8.3796    -7.9890 O.2     
  37 C37            1.5719    -6.5643    -6.1521 C.3     
  38 C38            1.0855    -8.8993    -6.8307 C.ar    
  39 C39            1.3641    -9.3542    -8.1059 C.ar    
  40 C40            1.9129   -10.6099    -8.2873 C.ar    
  41 C41            2.1835   -11.4105    -7.1934 C.ar    
  42 C42            1.9057   -10.9553    -5.9181 C.ar    
  43 C43            1.3610    -9.6978    -5.7364 C.ar    
  44 C44            1.0024    -5.1453    -6.0955 C.3     
  45 C45           -2.1249   -10.8482    -8.8785 C.3     
  46 C46           -2.2690   -12.3662    -9.0042 C.3     
  47 C47           -0.9824   -13.0294    -8.5849 C.ar    
  48 C48           -0.7914   -13.3885    -7.2627 C.ar    
  49 C49            0.3848   -13.9961    -6.8730 C.ar    
  50 C50            1.3814   -14.2478    -7.8147 C.ar    
  51 C51            1.1833   -13.8837    -9.1456 C.ar    
  52 C52            0.0007   -13.2818    -9.5248 C.ar    
  53 C53            2.6476   -14.8999    -7.4020 C.ar    
  54 C54            3.6427   -15.1503    -8.3471 C.ar    
  55 C55            4.8185   -15.7560    -7.9655 C.ar    
  56 C56            5.0151   -16.1197    -6.6305 C.ar    
  57 C57            4.0175   -15.8679    -5.6847 C.ar    
  58 C58            2.8449   -15.2573    -6.0680 C.ar    
  59 C59            6.2376   -16.7503    -6.2322 C.1     
  60 N60            7.2073   -17.2506    -5.9162 N.1     
  61 C61           -3.3654   -10.1799    -9.4128 C.2     
  62 O62           -4.0313    -9.4763    -8.6906 O.2     
  63 O63           -3.7307   -10.3662   -10.6909 O.3     
  64 H64           -3.0318     1.0446    -3.0399 H       
  65 H65           -7.0100    -0.4636    -3.3371 H       
  66 H66           -7.8061     1.7648    -4.0175 H       
  67 H67           -5.1170    -1.9744    -3.1862 H       
  68 H68           -3.4566    -1.3452    -3.0623 H       
  69 H69           -4.5260    -1.8889     1.2494 H       
  70 H70           -3.7896    -4.0244     2.2270 H       
  71 H71           -2.9300    -5.5218    -1.6731 H       
  72 H72           -3.6710    -3.3916    -2.6590 H       
  73 H73           -2.6254    -6.0599     1.9898 H       
  74 H74           -4.8354    -9.9258    -0.0323 H       
  75 H75           -6.0241    -8.6061     0.0849 H       
  76 H76           -5.3770    -9.0826    -1.5033 H       
  77 H77           -0.0129    -6.5171    -1.7569 H       
  78 H78           -4.2080    -8.8842    -2.7910 H       
  79 H79            0.3468    -6.3710    -4.2123 H       
  80 H80            0.7442    -8.0986    -4.0844 H       
  81 H81           -0.6555    -9.6748    -5.2581 H       
  82 H82           -3.0353    -9.7739    -4.8096 H       
  83 H83           -3.2763    -8.1307    -5.4450 H       
  84 H84            0.0758    -7.1738    -7.5772 H       
  85 H85           -2.0876   -11.1548    -6.7779 H       
  86 H86            1.9080    -6.8608    -5.1585 H       
  87 H87            2.4142    -6.5905    -6.8434 H       
  88 H88            1.1527    -8.7286    -8.9606 H       
  89 H89            2.1299   -10.9656    -9.2837 H       
  90 H90            2.6116   -12.3919    -7.3352 H       
  91 H91            2.1168   -11.5809    -5.0635 H       
  92 H92            1.1440    -9.3421    -4.7400 H       
  93 H93            0.6037    -4.8746    -7.0731 H       
  94 H94            0.2050    -5.1032    -5.3535 H       
  95 H95            1.7928    -4.4474    -5.8194 H       
  96 H96           -1.2585   -10.5169    -9.4510 H       
  97 H97           -3.0804   -12.7085    -8.3619 H       
  98 H98           -2.4910   -12.6256   -10.0394 H       
  99 H99           -1.5640   -13.1926    -6.5340 H       
 100 H100           0.5330   -14.2757    -5.8404 H       
 101 H101           1.9520   -14.0763    -9.8794 H       
 102 H102          -0.1539   -12.9993   -10.5557 H       
 103 H103           3.4905   -14.8691    -9.3787 H       
 104 H104           5.5884   -15.9503    -8.6975 H       
 105 H105           4.1681   -16.1488    -4.6528 H       
 106 H106           2.0738   -15.0625    -5.3374 H       
 107 H107          -4.5338    -9.9168   -10.9879 H       
@<TRIPOS>BOND
   1    1    2 ar
   2    1    8 1
   3    1    6 ar
   4    2    3 ar
   5    2   64 1
   6    3    4 ar
   7    3    9 1
   8    4    5 ar
   9    4   65 1
  10    5    6 ar
  11    5   66 1
  12    6    7 1
  13    9   10 1
  14    9   67 1
  15    9   68 1
  16   10   11 1
  17   11   12 ar
  18   11   16 ar
  19   12   13 ar
  20   12   69 1
  21   13   14 ar
  22   13   70 1
  23   14   15 ar
  24   14   18 1
  25   15   16 ar
  26   15   71 1
  27   16   72 1
  28   17   18 1
  29   17   24 2
  30   17   22 am
  31   18   19 1
  32   18   73 1
  33   19   20 1
  34   20   21 ar
  35   20   25 ar
  36   21   22 1
  37   21   28 ar
  38   22   23 1
  39   23   74 1
  40   23   75 1
  41   23   76 1
  42   25   26 ar
  43   25   77 1
  44   26   27 ar
  45   26   29 1
  46   27   28 ar
  47   27   32 1
  48   28   78 1
  49   29   30 1
  50   29   79 1
  51   29   80 1
  52   30   31 1
  53   30   33 1
  54   31   32 1
  55   31   35 1
  56   31   81 1
  57   32   82 1
  58   32   83 1
  59   33   37 1
  60   33   38 1
  61   33   84 1
  62   34   35 am
  63   34   45 1
  64   34   85 1
  65   35   36 2
  66   37   44 1
  67   37   86 1
  68   37   87 1
  69   38   39 ar
  70   38   43 ar
  71   39   40 ar
  72   39   88 1
  73   40   41 ar
  74   40   89 1
  75   41   42 ar
  76   41   90 1
  77   42   43 ar
  78   42   91 1
  79   43   92 1
  80   44   93 1
  81   44   94 1
  82   44   95 1
  83   45   46 1
  84   45   61 1
  85   45   96 1
  86   46   47 1
  87   46   97 1
  88   46   98 1
  89   47   48 ar
  90   47   52 ar
  91   48   49 ar
  92   48   99 1
  93   49   50 ar
  94   49  100 1
  95   50   51 ar
  96   50   53 1
  97   51   52 ar
  98   51  101 1
  99   52  102 1
 100   53   54 ar
 101   53   58 ar
 102   54   55 ar
 103   54  103 1
 104   55   56 ar
 105   55  104 1
 106   56   57 ar
 107   56   59 1
 108   57   58 ar
 109   57  105 1
 110   58  106 1
 111   59   60 3
 112   61   62 2
 113   61   63 1
 114   63  107 1

#	End of record

