#	Name: ASD03331849
#	Creating user name:	WinNT
#	Creation time:	15. 06. 2019 20:40

#	Modifying user name:	WinNT
#	Modification time:	15. 06. 2019 20:40

#	Program:	/corina/corina34_cracker 3.40 0067  02.08.2006

@<TRIPOS>MOLECULE
ASD03331849
  45   47    0    0    0
SMALL
NO_CHARGES


@<TRIPOS>ATOM
   1 C1             0.3677     1.2778    -1.8061 C.ar    
   2 C2             0.6055     0.0218    -2.3716 C.ar    
   3 C3             1.8928    -0.5220    -2.3417 C.ar    
   4 C4             2.9217     0.1806    -1.7557 C.ar    
   5 C5             2.6813     1.4301    -1.1935 C.ar    
   6 C6             1.4016     1.9747    -1.2218 C.ar    
   7 N7             3.7264     2.1391    -0.6001 N.am    
   8 C8             3.7626     3.4836    -0.6856 C.2     
   9 N9             4.7100     4.1758    -0.0225 N.am    
  10 O10            2.9405     4.0721    -1.3610 O.2     
  11 C11            4.8084     5.5621    -0.1877 C.ar    
  12 C12            3.7530     7.6935    -0.5264 C.ar    
  13 C13            3.6601     6.3240    -0.3634 C.ar    
  14 C14            6.0516     6.1761    -0.1705 C.ar    
  15 C15            6.1444     7.5558    -0.3348 C.ar    
  16 C16            4.9869     8.3119    -0.5158 C.ar    
  17 C17            7.4708     8.2193    -0.3170 C.ar    
  18 C18            7.5740     9.6032    -0.4810 C.ar    
  19 C19            8.8323    10.1777    -0.4573 C.ar    
  20 N20            9.8932     9.4058    -0.2813 N.ar    
  21 C21            9.7658     8.0958    -0.1282 C.ar    
  22 N22            8.5805     7.5064    -0.1389 N.ar    
  23 C23           -0.4673    -0.7062    -2.9797 C.1     
  24 N24           10.9007     7.3246     0.0533 N.pl3   
  25 C25           12.2214     7.9583     0.0744 C.3     
  26 C26           10.7813     5.8745     0.2244 C.3     
  27 N27           -1.3183    -1.2837    -3.4622 N.1     
  28 H28           -0.6247     1.7030    -1.8313 H       
  29 H29            2.0800    -1.4923    -2.7774 H       
  30 H30            3.9166    -0.2390    -1.7322 H       
  31 H31            1.2187     2.9453    -0.7849 H       
  32 H32            4.4269     1.6642    -0.1260 H       
  33 H33            5.3238     3.7131     0.5693 H       
  34 H34            2.8573     8.2814    -0.6626 H       
  35 H35            2.6922     5.8450    -0.3729 H       
  36 H36            6.9452     5.5861    -0.0296 H       
  37 H37            5.0557     9.3820    -0.6441 H       
  38 H38            6.6921    10.2101    -0.6234 H       
  39 H39            8.9478    11.2443    -0.5814 H       
  40 H40           12.4721     8.2418     1.0966 H       
  41 H41           12.9668     7.2575    -0.3014 H       
  42 H42           12.2079     8.8473    -0.5562 H       
  43 H43            9.7303     5.5888     0.1805 H       
  44 H44           11.3289     5.3685    -0.5707 H       
  45 H45           11.1958     5.5873     1.1908 H       
@<TRIPOS>BOND
   1    1    2 ar
   2    1    6 ar
   3    1   28 1
   4    2    3 ar
   5    2   23 1
   6    3    4 ar
   7    3   29 1
   8    4    5 ar
   9    4   30 1
  10    5    6 ar
  11    5    7 1
  12    6   31 1
  13    7    8 am
  14    7   32 1
  15    8    9 am
  16    8   10 2
  17    9   11 1
  18    9   33 1
  19   11   14 ar
  20   11   13 ar
  21   12   13 ar
  22   12   16 ar
  23   12   34 1
  24   13   35 1
  25   14   15 ar
  26   14   36 1
  27   15   16 ar
  28   15   17 1
  29   16   37 1
  30   17   18 ar
  31   17   22 ar
  32   18   19 ar
  33   18   38 1
  34   19   20 ar
  35   19   39 1
  36   20   21 ar
  37   21   22 ar
  38   21   24 1
  39   23   27 3
  40   24   25 1
  41   24   26 1
  42   25   40 1
  43   25   41 1
  44   25   42 1
  45   26   43 1
  46   26   44 1
  47   26   45 1

#	End of record

