#	Name: ASD01120212
#	Creating user name:	WinNT
#	Creation time:	15. 06. 2019 18:59

#	Modifying user name:	WinNT
#	Modification time:	15. 06. 2019 18:59

#	Program:	/corina/corina34_cracker 3.40 0067  02.08.2006

@<TRIPOS>MOLECULE
ASD01120212
  36   39    0    0    0
SMALL
NO_CHARGES


@<TRIPOS>ATOM
   1 C1             0.2673     2.0761     0.7487 C.ar    
   2 C2             0.1457     0.6858     0.7964 C.ar    
   3 C3             1.2592    -0.1156     0.6627 C.ar    
   4 C4             2.5084     0.4564     0.4798 C.ar    
   5 C5             2.6410     1.8529     0.4300 C.ar    
   6 C6             1.5138     2.6611     0.5654 C.ar    
   7 O7             3.7534    -0.0507     0.3215 O.3     
   8 C8             4.6103     0.9758     0.1814 C.2     
   9 N9             3.9649     2.1123     0.2436 N.2     
  10 N10            5.9688     0.8495    -0.0006 N.am    
  11 S11            6.6772    -0.6460     0.0625 S.o2    
  12 O12            5.9089    -1.4899    -0.7842 O.2     
  13 O13            8.0723    -0.4367    -0.1076 O.2     
  14 C14            6.4618    -1.2565     1.7013 C.ar    
  15 C15            7.0542    -0.6023     2.7665 C.ar    
  16 C16            6.8847    -1.0815     4.0535 C.ar    
  17 C17            6.1233    -2.2131     4.2748 C.ar    
  18 C18            5.5303    -2.8672     3.2093 C.ar    
  19 C19            5.6962    -2.3857     1.9231 C.ar    
  20 Cl20           8.0109     0.8194     2.4885 Cl      
  21 Cl21           4.5736    -4.2889     3.4872 Cl      
  22 O22           -2.2651     4.6679     1.0223 O.3     
  23 C23           -0.9890     4.2870     0.8633 C.2     
  24 C24           -0.9388     2.9305     0.8880 C.2     
  25 C25           -2.3227     2.4834     1.0804 C.2     
  26 C26           -3.0668     3.6001     1.1525 C.2     
  27 H27           -0.8258     0.2361     0.9391 H       
  28 H28            1.1583    -1.1902     0.7008 H       
  29 H29            1.6088     3.7362     0.5276 H       
  30 H30            6.5113     1.6365    -0.1657 H       
  31 H31            7.3478    -0.5712     4.8851 H       
  32 H32            5.9912    -2.5873     5.2792 H       
  33 H33            5.2331    -2.8960     1.0915 H       
  34 H34           -0.1441     4.9477     0.7365 H       
  35 H35           -2.6725     1.4640     1.1495 H       
  36 H36           -4.1372     3.6327     1.2926 H       
@<TRIPOS>BOND
   1    1    2 ar
   2    1    6 ar
   3    1   24 1
   4    2    3 ar
   5    2   27 1
   6    3    4 ar
   7    3   28 1
   8    4    5 ar
   9    4    7 1
  10    5    6 ar
  11    5    9 1
  12    6   29 1
  13    7    8 1
  14    8    9 2
  15    8   10 1
  16   10   11 am
  17   10   30 1
  18   11   12 2
  19   11   13 2
  20   11   14 1
  21   14   15 ar
  22   14   19 ar
  23   15   16 ar
  24   15   20 1
  25   16   17 ar
  26   16   31 1
  27   17   18 ar
  28   17   32 1
  29   18   19 ar
  30   18   21 1
  31   19   33 1
  32   22   23 1
  33   22   26 1
  34   23   24 2
  35   23   34 1
  36   24   25 1
  37   25   26 2
  38   25   35 1
  39   26   36 1

#	End of record

