#	Name: ASD01813986
#	Creating user name:	WinNT
#	Creation time:	15. 06. 2019 19:31

#	Modifying user name:	WinNT
#	Modification time:	15. 06. 2019 19:31

#	Program:	/corina/corina34_cracker 3.40 0067  02.08.2006

@<TRIPOS>MOLECULE
ASD01813986
  45   49    0    0    0
SMALL
NO_CHARGES


@<TRIPOS>ATOM
   1 C1            -0.0169     1.3935     0.0097 C.ar    
   2 C2             0.0021    -0.0041     0.0020 C.ar    
   3 C3             1.2525    -0.6619    -0.0135 C.ar    
   4 C4             2.4160     0.1050    -0.0210 C.ar    
   5 C5             2.2961     1.4801    -0.0129 C.ar    
   6 N6             1.1125     2.0677     0.0025 N.ar    
   7 C7             1.2640    -2.1319    -0.0215 C.2     
   8 N8            -1.1304    -0.7469     0.0093 N.2     
   9 C9            -1.0909    -2.0455     0.0024 C.2     
  10 N10            0.0640    -2.7606    -0.0134 N.am    
  11 C11            0.0114    -4.2246    -0.0208 C.3     
  12 F12           -2.3605    -4.6522     1.4315 F       
  13 C13           -1.1953    -4.9246     2.0588 C.ar    
  14 C14            0.0070    -4.7343     1.3974 C.ar    
  15 C15            1.2052    -5.0112     2.0352 C.ar    
  16 C16           -1.2046    -5.3872     3.3612 C.ar    
  17 C17           -0.0010    -5.6681     4.0076 C.ar    
  18 C18            1.2065    -5.4797     3.3355 C.ar    
  19 C19           -0.0052    -6.1635     5.4029 C.ar    
  20 C20            0.7672    -7.3492     5.7774 C.ar    
  21 C21           -0.7331    -5.5138     6.3797 C.ar    
  22 C22           -0.7463    -5.9684     7.6958 C.ar    
  23 C23           -0.0546    -7.0630     8.0981 C.ar    
  24 C24            0.7254    -7.7956     7.1786 C.ar    
  25 C25            1.5900    -8.2286     5.1085 C.2     
  26 N26            2.0257    -9.1389     5.9919 N.pl3   
  27 N27            1.4896    -8.8703     7.2567 N.2     
  28 C28            2.9254   -10.2519     5.6785 C.3     
  29 O29            2.3076    -2.7577    -0.0353 O.2     
  30 F30            2.3744    -4.8235     1.3848 F       
  31 H31           -0.9597     1.9202     0.0170 H       
  32 H32            3.3881    -0.3653    -0.0325 H       
  33 H33            3.1884     2.0886    -0.0185 H       
  34 H34           -2.0262    -2.5853     0.0092 H       
  35 H35           -0.8959    -4.5530    -0.5277 H       
  36 H36            0.8828    -4.6169    -0.5451 H       
  37 H37           -2.1423    -5.5311     3.8774 H       
  38 H38            2.1412    -5.6960     3.8316 H       
  39 H39           -1.3036    -4.6349     6.1178 H       
  40 H40           -1.3306    -5.4273     8.4253 H       
  41 H41           -0.0976    -7.3739     9.1315 H       
  42 H42            1.8395    -8.1919     4.0584 H       
  43 H43            3.9588    -9.9330     5.8142 H       
  44 H44            2.7131   -11.0889     6.3437 H       
  45 H45            2.7735   -10.5618     4.6446 H       
@<TRIPOS>BOND
   1    1    2 ar
   2    1    6 ar
   3    1   31 1
   4    2    3 ar
   5    2    8 1
   6    3    4 ar
   7    3    7 1
   8    4    5 ar
   9    4   32 1
  10    5    6 ar
  11    5   33 1
  12    7   10 am
  13    7   29 2
  14    8    9 2
  15    9   10 1
  16    9   34 1
  17   10   11 1
  18   11   14 1
  19   11   35 1
  20   11   36 1
  21   12   13 1
  22   13   16 ar
  23   13   14 ar
  24   14   15 ar
  25   15   18 ar
  26   15   30 1
  27   16   17 ar
  28   16   37 1
  29   17   18 ar
  30   17   19 1
  31   18   38 1
  32   19   21 ar
  33   19   20 ar
  34   20   25 2
  35   20   24 ar
  36   21   22 ar
  37   21   39 1
  38   22   23 ar
  39   22   40 1
  40   23   24 ar
  41   23   41 1
  42   24   27 2
  43   25   26 1
  44   25   42 1
  45   26   27 1
  46   26   28 1
  47   28   43 1
  48   28   44 1
  49   28   45 1

#	End of record

