#	Name: ASD05430177
#	Creating user name:	WinNT
#	Creation time:	15. 06. 2019 20:59

#	Modifying user name:	WinNT
#	Modification time:	15. 06. 2019 20:59

#	Program:	/corina/corina34_cracker 3.40 0067  02.08.2006

@<TRIPOS>MOLECULE
ASD05430177
  65   71    0    0    0
SMALL
NO_CHARGES


@<TRIPOS>ATOM
   1 C1            -0.2433     1.1437     0.1855 C.ar    
   2 C2            -0.3191    -0.2452     0.2538 C.ar    
   3 C3            -1.5580    -0.8670     0.2995 C.ar    
   4 C4            -2.7128    -0.1085     0.2773 C.ar    
   5 C5            -2.6371     1.2707     0.2094 C.ar    
   6 C6            -1.4060     1.8977     0.1694 C.ar    
   7 C7            -4.5016     0.8140    -2.0277 C.3     
   8 C8            -4.8735     1.8541    -0.9627 C.3     
   9 C9            -3.9001     2.0924     0.1855 C.3     
  10 C10           -3.9980     1.5490    -3.2707 C.3     
  11 C11           -5.0388     2.4715    -3.9035 C.3     
  12 N12           -5.6031     3.3400    -2.8727 N.pl3   
  13 C13           -5.6303     3.0388    -1.5184 C.2     
  14 N14           -6.3707     3.8698    -0.8849 N.2     
  15 C15           -7.1584     4.6900    -4.1909 C.ar    
  16 C16           -8.4339     5.2021    -4.0422 C.ar    
  17 C17           -6.7447     4.2081    -5.4189 C.ar    
  18 C18           -7.6059     4.2383    -6.4994 C.ar    
  19 C19           -8.8835     4.7510    -6.3516 C.ar    
  20 C20           -9.2969     5.2329    -5.1211 C.ar    
  21 N21            0.8552    -1.0138     0.2759 N.pl3   
  22 F22           -9.7260     4.7814    -7.4072 F       
  23 C23           -5.2231     1.3636     0.4369 C.3     
  24 C24            1.9043    -0.9095    -0.5801 C.2     
  25 C25            1.1621    -2.0071     1.1690 C.2     
  26 C26            2.3774    -2.4767     0.8279 C.2     
  27 N27            2.8065    -1.7900    -0.2412 N.2     
  28 C28            3.1274    -3.5798     1.5291 C.3     
  29 O29            0.9683     1.7586     0.1404 O.3     
  30 C30           -6.2162     4.6627    -3.0151 C.3     
  31 O31           -6.9405     4.8174    -1.7765 O.3     
  32 C32           -5.1434     5.7441    -3.1583 C.3     
  33 C33            0.9693     3.1859     0.0712 C.3     
  34 C34           -2.6282     2.2145    -3.0738 C.3     
  35 O35           -2.3136     1.6837    -4.3779 O.3     
  36 C36           -3.2957     0.6313    -4.2816 C.3     
  37 H37           -1.6201    -1.9439     0.3522 H       
  38 H38           -3.6769    -0.5939     0.3126 H       
  39 H39           -1.3502     2.9750     0.1164 H       
  40 H40           -3.7163     0.1624    -1.6445 H       
  41 H41           -5.3801     0.2217    -2.2834 H       
  42 H42           -3.8059     3.1107     0.5626 H       
  43 H43           -4.5652     3.0807    -4.6734 H       
  44 H44           -5.8328     1.8726    -4.3495 H       
  45 H45           -8.7561     5.5779    -3.0823 H       
  46 H46           -5.7481     3.8083    -5.5339 H       
  47 H47           -7.2822     3.8625    -7.4587 H       
  48 H48          -10.2934     5.6326    -5.0046 H       
  49 H49           -5.9995     1.9025     0.9799 H       
  50 H50           -5.1796     0.2900     0.6197 H       
  51 H51            1.9793    -0.2149    -1.4036 H       
  52 H52            0.5475    -2.3476     1.9892 H       
  53 H53            2.8672    -4.5384     1.0803 H       
  54 H54            4.1996    -3.4108     1.4289 H       
  55 H55            2.8581    -3.5880     2.5853 H       
  56 H56           -4.5374     5.5402    -4.0410 H       
  57 H57           -5.6212     6.7183    -3.2627 H       
  58 H58           -4.5074     5.7444    -2.2731 H       
  59 H59            0.4670     3.5926     0.9489 H       
  60 H60            1.9971     3.5475     0.0407 H       
  61 H61            0.4445     3.5063    -0.8289 H       
  62 H62           -2.6675     3.3032    -3.0381 H       
  63 H63           -2.0385     1.7803    -2.2665 H       
  64 H64           -2.9122    -0.2920    -3.8474 H       
  65 H65           -3.8617     0.4704    -5.1992 H       
@<TRIPOS>BOND
   1    1    2 ar
   2    1   29 1
   3    1    6 ar
   4    2    3 ar
   5    2   21 1
   6    3    4 ar
   7    3   37 1
   8    4    5 ar
   9    4   38 1
  10    5    6 ar
  11    5    9 1
  12    6   39 1
  13    7    8 1
  14    7   10 1
  15    7   40 1
  16    7   41 1
  17    8    9 1
  18    8   23 1
  19    8   13 1
  20    9   23 1
  21    9   42 1
  22   10   11 1
  23   10   34 1
  24   10   36 1
  25   11   12 1
  26   11   43 1
  27   11   44 1
  28   12   13 1
  29   12   30 1
  30   13   14 2
  31   14   31 1
  32   15   16 ar
  33   15   17 ar
  34   15   30 1
  35   16   20 ar
  36   16   45 1
  37   17   18 ar
  38   17   46 1
  39   18   19 ar
  40   18   47 1
  41   19   20 ar
  42   19   22 1
  43   20   48 1
  44   21   24 1
  45   21   25 1
  46   23   49 1
  47   23   50 1
  48   24   27 2
  49   24   51 1
  50   25   26 2
  51   25   52 1
  52   26   27 1
  53   26   28 1
  54   28   53 1
  55   28   54 1
  56   28   55 1
  57   29   33 1
  58   30   31 1
  59   30   32 1
  60   32   56 1
  61   32   57 1
  62   32   58 1
  63   33   59 1
  64   33   60 1
  65   33   61 1
  66   34   35 1
  67   34   62 1
  68   34   63 1
  69   35   36 1
  70   36   64 1
  71   36   65 1

#	End of record

