#	Name: ASD03092007
#	Creating user name:	WinNT
#	Creation time:	15. 06. 2019 20:31

#	Modifying user name:	WinNT
#	Modification time:	15. 06. 2019 20:31

#	Program:	/corina/corina34_cracker 3.40 0067  02.08.2006

@<TRIPOS>MOLECULE
ASD03092007
  47   50    0    0    0
SMALL
NO_CHARGES


@<TRIPOS>ATOM
   1 C1            -0.0976     1.2670     0.5629 C.ar    
   2 C2            -0.0194    -0.0027    -0.0004 C.ar    
   3 C3            -1.1520    -0.5921    -0.5461 C.ar    
   4 C4            -2.3585     0.0754    -0.5309 C.ar    
   5 C5            -2.4439     1.3480     0.0347 C.ar    
   6 C6            -1.3059     1.9427     0.5791 C.ar    
   7 C7            -3.7373     2.0661     0.0536 C.2     
   8 C8            -3.9098     3.4182     0.1384 C.2     
   9 C9            -5.2868     3.6758     0.1245 C.2     
  10 N10           -5.9224     2.5305     0.0352 N.2     
  11 N11           -4.9753     1.5000    -0.0164 N.pl3   
  12 C12           -5.2641     0.0674    -0.1193 C.3     
  13 N13           -5.8838     4.9402     0.1945 N.pl3   
  14 C14           -7.2682     5.0690     0.0450 C.ar    
  15 C15           -7.9311     6.1493     0.6121 C.ar    
  16 C16           -9.3005     6.2745     0.4623 C.ar    
  17 C17          -10.0098     5.3219    -0.2534 C.ar    
  18 C18           -9.3493     4.2446    -0.8185 C.ar    
  19 C19           -7.9811     4.1193    -0.6759 C.ar    
  20 F20           -9.9470     7.3247     1.0139 F       
  21 F21          -11.3473     5.4452    -0.3991 F       
  22 C22           -5.4617    -0.3026    -1.5667 C.2     
  23 O23           -5.3703     0.5468    -2.4276 O.2     
  24 N24           -5.7399    -1.5773    -1.9045 N.am    
  25 C25           -5.9320    -1.9369    -3.3117 C.3     
  26 O26            1.0047     1.8612     1.0970 O.3     
  27 C27            2.1145     1.0079     1.3967 C.3     
  28 C28            2.3491     0.0844     0.1937 C.3     
  29 O29            1.1597    -0.6828    -0.0210 O.3     
  30 H30           -1.0877    -1.5771    -0.9845 H       
  31 H31           -3.2369    -0.3865    -0.9569 H       
  32 H32           -1.3683     2.9276     1.0178 H       
  33 H33           -3.1248     4.1570     0.2044 H       
  34 H34           -4.4297    -0.5018     0.2906 H       
  35 H35           -6.1704    -0.1617     0.4413 H       
  36 H36           -5.3372     5.7270     0.3466 H       
  37 H37           -7.3783     6.8907     1.1698 H       
  38 H38           -9.9037     3.5035    -1.3750 H       
  39 H39           -7.4669     3.2785    -1.1176 H       
  40 H40           -5.8130    -2.2566    -1.2160 H       
  41 H41           -6.7664    -1.3677    -3.7215 H       
  42 H42           -5.0257    -1.7078    -3.8722 H       
  43 H43           -6.1469    -3.0028    -3.3882 H       
  44 H44            3.0043     1.6114     1.5759 H       
  45 H45            1.8908     0.4105     2.2806 H       
  46 H46            2.5659     0.6820    -0.6917 H       
  47 H47            3.1852    -0.5837     0.4006 H       
@<TRIPOS>BOND
   1    1    2 ar
   2    1   26 1
   3    1    6 ar
   4    2    3 ar
   5    2   29 1
   6    3    4 ar
   7    3   30 1
   8    4    5 ar
   9    4   31 1
  10    5    6 ar
  11    5    7 1
  12    6   32 1
  13    7    8 2
  14    7   11 1
  15    8    9 1
  16    8   33 1
  17    9   10 2
  18    9   13 1
  19   10   11 1
  20   11   12 1
  21   12   22 1
  22   12   34 1
  23   12   35 1
  24   13   14 1
  25   13   36 1
  26   14   15 ar
  27   14   19 ar
  28   15   16 ar
  29   15   37 1
  30   16   17 ar
  31   16   20 1
  32   17   18 ar
  33   17   21 1
  34   18   19 ar
  35   18   38 1
  36   19   39 1
  37   22   23 2
  38   22   24 am
  39   24   25 1
  40   24   40 1
  41   25   41 1
  42   25   42 1
  43   25   43 1
  44   26   27 1
  45   27   28 1
  46   27   44 1
  47   27   45 1
  48   28   29 1
  49   28   46 1
  50   28   47 1

#	End of record

