#	Name: ASD03910127
#	Creating user name:	WinNT
#	Creation time:	15. 06. 2019 20:47

#	Modifying user name:	WinNT
#	Modification time:	15. 06. 2019 20:47

#	Program:	/corina/corina34_cracker 3.40 0067  02.08.2006

@<TRIPOS>MOLECULE
ASD03910127
  49   49    0    0    0
SMALL
NO_CHARGES


@<TRIPOS>ATOM
   1 Na1            0.0000     0.0000     0.0000 Du      
   2 O2             7.4822     8.6206     6.9705 O.3     
   3 O3             7.5918     5.3601     8.6143 O.3     
   4 O4             8.6519     7.2816     8.8742 O.2     
   5 O5            13.1068     9.7801     8.0142 O.2     
   6 N6            15.0016     9.9900     6.8794 N.am    
   7 C7             7.0576     7.2666     7.1394 C.3     
   8 C8             5.5616     7.2375     7.4589 C.3     
   9 C9             7.3190     6.4854     5.8502 C.3     
  10 C10           11.4515     9.2348     6.0288 C.ar    
  11 C11            8.7898     8.8229     6.6601 C.ar    
  12 C12           12.9015     9.4592     5.6851 C.3     
  13 C13            7.8256     6.6370     8.2729 C.2     
  14 C14           10.5726    10.3021     6.0439 C.ar    
  15 C15           11.0010     7.9610     6.3224 C.ar    
  16 C16            9.2430    10.0990     6.3590 C.ar    
  17 C17            9.6723     7.7527     6.6382 C.ar    
  18 C18           15.7356    10.1831     8.0549 C.ar    
  19 C19           13.6762     9.7545     6.9436 C.2     
  20 C20           15.8905    11.0372    10.2902 C.ar    
  21 C21           17.7621     9.9079     9.3070 C.ar    
  22 C22           17.0401     9.7154     8.1455 C.ar    
  23 C23           15.1632    10.8479     9.1315 C.ar    
  24 C24           17.1875    10.5660    10.3789 C.ar    
  25 C25           15.2701    11.7585    11.4589 C.3     
  26 C26           19.1775     9.4003     9.4064 C.3     
  27 H27            8.3598     6.6133     5.5526 H       
  28 H28            5.0000     7.6134     6.6037 H       
  29 H29            5.2556     6.2134     7.6728 H       
  30 H30            5.3633     7.8649     8.3279 H       
  31 H31            7.1167     5.4277     6.0188 H       
  32 H32            6.6669     6.8587     5.0605 H       
  33 H33           13.3053     8.5645     5.2114 H       
  34 H34           12.9862    10.3028     5.0000 H       
  35 H35           10.9260    11.2954     5.8098 H       
  36 H36           11.6885     7.1283     6.3056 H       
  37 H37            8.5578    10.9337     6.3750 H       
  38 H38            9.3220     6.7583     6.8725 H       
  39 H39           15.4467    10.0257     6.0183 H       
  40 H40           17.4894     9.2013     7.3087 H       
  41 H41           14.1505    11.2167     9.0625 H       
  42 H42           17.7543    10.7157    11.2860 H       
  43 H43           14.7703    11.0382    12.1066 H       
  44 H44           16.0478    12.2747    12.0217 H       
  45 H45           14.5434    12.4842    11.0938 H       
  46 H46           19.8657    10.1740     9.0661 H       
  47 H47           19.4004     9.1459    10.4426 H       
  48 H48           19.2902     8.5137     8.7823 H       
  49 H49            8.1091     5.0000     9.3477 H       
@<TRIPOS>BOND
   1    2    7 1
   2    2   11 1
   3    3   13 1
   4    3   49 1
   5    4   13 2
   6    5   19 2
   7    6   18 1
   8    6   19 am
   9    6   39 1
  10    7    8 1
  11    7    9 1
  12    7   13 1
  13    8   28 1
  14    8   29 1
  15    8   30 1
  16    9   27 1
  17    9   31 1
  18    9   32 1
  19   10   12 1
  20   10   14 ar
  21   10   15 ar
  22   11   16 ar
  23   11   17 ar
  24   12   19 1
  25   12   33 1
  26   12   34 1
  27   14   16 ar
  28   14   35 1
  29   15   17 ar
  30   15   36 1
  31   16   37 1
  32   17   38 1
  33   18   22 ar
  34   18   23 ar
  35   20   23 ar
  36   20   24 ar
  37   20   25 1
  38   21   22 ar
  39   21   24 ar
  40   21   26 1
  41   22   40 1
  42   23   41 1
  43   24   42 1
  44   25   43 1
  45   25   44 1
  46   25   45 1
  47   26   46 1
  48   26   47 1
  49   26   48 1

#	End of record

