#	Name: ASD01840409
#	Creating user name:	WinNT
#	Creation time:	15. 06. 2019 19:37

#	Modifying user name:	WinNT
#	Modification time:	15. 06. 2019 19:37

#	Program:	/corina/corina34_cracker 3.40 0067  02.08.2006

@<TRIPOS>MOLECULE
ASD01840409
  49   52    0    0    0
SMALL
NO_CHARGES


@<TRIPOS>ATOM
   1 C1             0.3769     2.1227    -0.1405 C.ar    
   2 C2             0.4061     0.7600    -0.3399 C.ar    
   3 N3             1.5203     0.0804    -0.1289 N.ar    
   4 N4             2.6054     0.6371     0.2619 N.ar    
   5 C5             1.5642     2.7569     0.2910 C.ar    
   6 C6             1.8285     4.1544     0.5790 C.2     
   7 C7             2.6934     1.9502     0.4864 C.ar    
   8 S8             4.0507     2.9330     1.0178 S.3     
   9 C9             3.1006     4.4054     0.9762 C.2     
  10 C10           -0.8823     2.9150    -0.3812 C.3     
  11 C11           -0.8362     0.0414    -0.7997 C.3     
  12 N12            0.8648     5.1464     0.4581 N.pl3   
  13 C13            3.6128     5.7304     1.3227 C.2     
  14 O14            2.8800     6.7009     1.2639 O.2     
  15 N15            4.8961     5.8774     1.7073 N.am    
  16 C16            5.4093     7.2050     2.0545 C.3     
  17 C17            6.6175     7.0986     3.0221 C.3     
  18 C18            7.4061     8.3935     2.7340 C.3     
  19 N19            7.0210     8.8493     1.3903 N.am    
  20 C20            6.0554     7.8897     0.8243 C.3     
  21 C21            7.4747     9.9608     0.7778 C.2     
  22 C22            8.3547    10.8981     1.5054 C.ar    
  23 C23            8.6884    12.1297     0.9379 C.ar    
  24 C24            9.5099    13.0005     1.6210 C.ar    
  25 C25           10.0051    12.6553     2.8693 C.ar    
  26 C26            9.6773    11.4336     3.4372 C.ar    
  27 C27            8.8512    10.5581     2.7656 C.ar    
  28 F28           10.8103    13.5123     3.5344 F       
  29 O29            7.1598    10.1920    -0.3734 O.2     
  30 H30           -1.3982     3.0738     0.5657 H       
  31 H31           -0.6265     3.8787    -0.8217 H       
  32 H32           -1.5327     2.3656    -1.0617 H       
  33 H33           -0.8598     0.0173    -1.8891 H       
  34 H34           -0.8301    -0.9780    -0.4138 H       
  35 H35           -1.7172     0.5651    -0.4287 H       
  36 H36           -0.0248     4.9225     0.1430 H       
  37 H37            1.0811     6.0634     0.6887 H       
  38 H38            5.4800     5.1043     1.7543 H       
  39 H39            4.6217     7.8270     2.4798 H       
  40 H40            6.2806     7.0748     4.0585 H       
  41 H41            7.2204     6.2204     2.7912 H       
  42 H42            7.1508     9.1548     3.4710 H       
  43 H43            8.4765     8.1900     2.7637 H       
  44 H44            6.5699     7.1533     0.2070 H       
  45 H45            5.2984     8.4131     0.2403 H       
  46 H46            8.3038    12.3992    -0.0347 H       
  47 H47            9.7686    13.9532     1.1831 H       
  48 H48           10.0663    11.1694     4.4094 H       
  49 H49            8.5926     9.6088     3.2109 H       
@<TRIPOS>BOND
   1    1    2 ar
   2    1    5 ar
   3    1   10 1
   4    2   11 1
   5    2    3 ar
   6    3    4 ar
   7    4    7 ar
   8    5    7 ar
   9    5    6 1
  10    6    9 2
  11    6   12 1
  12    7    8 1
  13    8    9 1
  14    9   13 1
  15   10   30 1
  16   10   31 1
  17   10   32 1
  18   11   33 1
  19   11   34 1
  20   11   35 1
  21   12   36 1
  22   12   37 1
  23   13   14 2
  24   13   15 am
  25   15   16 1
  26   15   38 1
  27   16   17 1
  28   16   20 1
  29   16   39 1
  30   17   18 1
  31   17   40 1
  32   17   41 1
  33   18   19 1
  34   18   42 1
  35   18   43 1
  36   19   20 1
  37   19   21 am
  38   20   44 1
  39   20   45 1
  40   21   22 1
  41   21   29 2
  42   22   23 ar
  43   22   27 ar
  44   23   24 ar
  45   23   46 1
  46   24   25 ar
  47   24   47 1
  48   25   26 ar
  49   25   28 1
  50   26   27 ar
  51   26   48 1
  52   27   49 1

#	End of record

