#	Name: ASD01190071
#	Creating user name:	WinNT
#	Creation time:	15. 06. 2019 19:07

#	Modifying user name:	WinNT
#	Modification time:	15. 06. 2019 19:07

#	Program:	/corina/corina34_cracker 3.40 0067  02.08.2006

@<TRIPOS>MOLECULE
ASD01190071
  48   52    0    0    0
SMALL
NO_CHARGES


@<TRIPOS>ATOM
   1 C1            -0.0187     1.5258     0.0104 C.3     
   2 C2             0.0098     0.0360     0.3578 C.3     
   3 N3             5.2752     3.4018    -0.2460 N.pl3   
   4 N4             5.6892     2.7227    -1.3966 N.2     
   5 C5             4.7124     1.9990    -1.8652 C.2     
   6 C6             3.5583     2.1867    -0.9916 C.ar    
   7 C7             2.2525     1.6837    -0.9835 C.ar    
   8 C8             1.3880     2.0664     0.0009 C.ar    
   9 C9             1.7924     2.9500     0.9941 C.ar    
  10 C10            3.0621     3.4544     1.0072 C.ar    
  11 C11            3.9660     3.0822     0.0160 C.ar    
  12 C12            5.5134     5.3822     1.1269 C.ar    
  13 C13            6.0700     4.2643     0.5189 C.ar    
  14 C14            7.4301     4.0137     0.6817 C.ar    
  15 C15            8.1747     4.8956     1.4479 C.ar    
  16 C16            7.5488     5.9866     2.0213 C.ar    
  17 N17            6.2582     6.1962     1.8476 N.ar    
  18 N18           -1.5999     1.2933    -3.3066 N.pl3   
  19 C19           -1.1151     0.7455    -2.1503 C.2     
  20 C20           -0.6378     1.7124    -1.3508 C.2     
  21 C21           -0.8330     2.9834    -2.0524 C.ar    
  22 C22           -0.5482     4.3154    -1.7452 C.ar    
  23 C23           -0.8635     5.2999    -2.6384 C.ar    
  24 C24           -1.4651     4.9868    -3.8498 C.ar    
  25 C25           -1.7552     3.6795    -4.1730 C.ar    
  26 C26           -1.4424     2.6609    -3.2786 C.ar    
  27 C27           -2.1926     0.5369    -4.4124 C.3     
  28 F28            0.5846    -0.1373     1.6215 F       
  29 F29           -1.2960    -0.4658     0.3667 F       
  30 F30            0.7670    -0.6511    -0.5970 F       
  31 O31           -0.7921     2.2276     0.9858 O.3     
  32 H32            4.7499     1.3718    -2.7436 H       
  33 H33            1.9303     0.9974    -1.7526 H       
  34 H34            1.0945     3.2418     1.7648 H       
  35 H35            3.3637     4.1407     1.7847 H       
  36 H36            4.4605     5.5890     1.0039 H       
  37 H37            7.8930     3.1528     0.2222 H       
  38 H38            9.2320     4.7324     1.5959 H       
  39 H39            8.1246     6.6772     2.6196 H       
  40 H40           -1.1165    -0.3087    -1.9155 H       
  41 H41           -0.0807     4.5665    -0.8046 H       
  42 H42           -0.6434     6.3300    -2.4001 H       
  43 H43           -1.7084     5.7761    -4.5457 H       
  44 H44           -2.2236     3.4461    -5.1178 H       
  45 H45           -3.2669     0.4431    -4.2538 H       
  46 H46           -2.0082     1.0603    -5.3506 H       
  47 H47           -1.7437    -0.4554    -4.4556 H       
  48 H48           -0.8534     3.1797     0.8283 H       
@<TRIPOS>BOND
   1    1    2 1
   2    1    8 1
   3    1   20 1
   4    1   31 1
   5    2   28 1
   6    2   29 1
   7    2   30 1
   8    3    4 1
   9    3   11 1
  10    3   13 1
  11    4    5 2
  12    5    6 1
  13    5   32 1
  14    6    7 ar
  15    6   11 ar
  16    7    8 ar
  17    7   33 1
  18    8    9 ar
  19    9   10 ar
  20    9   34 1
  21   10   11 ar
  22   10   35 1
  23   12   13 ar
  24   12   17 ar
  25   12   36 1
  26   13   14 ar
  27   14   15 ar
  28   14   37 1
  29   15   16 ar
  30   15   38 1
  31   16   17 ar
  32   16   39 1
  33   18   19 1
  34   18   26 1
  35   18   27 1
  36   19   20 2
  37   19   40 1
  38   20   21 1
  39   21   22 ar
  40   21   26 ar
  41   22   23 ar
  42   22   41 1
  43   23   24 ar
  44   23   42 1
  45   24   25 ar
  46   24   43 1
  47   25   26 ar
  48   25   44 1
  49   27   45 1
  50   27   46 1
  51   27   47 1
  52   31   48 1

#	End of record

