#	Name: ASD01000067
#	Creating user name:	WinNT
#	Creation time:	15. 06. 2019 18:54

#	Modifying user name:	WinNT
#	Modification time:	15. 06. 2019 18:54

#	Program:	/corina/corina34_cracker 3.40 0067  02.08.2006

@<TRIPOS>MOLECULE
ASD01000067
  49   50    0    0    0
SMALL
NO_CHARGES


@<TRIPOS>ATOM
   1 N1             0.5617     1.6861     0.2113 N.3     
   2 C2             0.5671     0.2272     0.0394 C.3     
   3 C3             4.4820    -0.2977     5.3762 C.3     
   4 C4             2.1574     1.2863     4.4963 C.3     
   5 C5             1.2400    -5.0544     3.5865 C.ar    
   6 C6            -1.2682    -0.0133     7.7021 C.ar    
   7 C7             1.8779    -4.1950     2.7117 C.ar    
   8 C8             0.4861    -4.5465     4.6280 C.ar    
   9 C9            -1.8793    -0.7027     6.6715 C.ar    
  10 C10            0.0397     0.4138     7.5679 C.ar    
  11 C11            1.7635    -2.8276     2.8794 C.ar    
  12 C12            0.3720    -3.1792     4.7959 C.ar    
  13 C13           -1.1820    -0.9665     5.5074 C.ar    
  14 C14            0.7371     0.1496     6.4040 C.ar    
  15 C15            3.0727    -0.8901     5.3135 C.3     
  16 C16            1.0107    -2.3197     3.9217 C.ar    
  17 C17            0.1263    -0.5406     5.3738 C.ar    
  18 C18            2.2823    -0.2084     4.1947 C.3     
  19 C19            0.8868    -0.8291     4.1051 C.3     
  20 C20            1.4336    -0.1365    -1.1387 C.2     
  21 O21            2.2610     0.6450    -1.5443 O.2     
  22 S22           -0.0017    -0.1178     2.6925 S.3     
  23 C23            1.1214    -0.4332     1.3034 C.3     
  24 O24            1.2863    -1.3288    -1.7374 O.3     
  25 H25            1.4943     2.0343     0.3759 H       
  26 H26            0.1405     2.1424    -0.5840 H       
  27 H27           -0.4504    -0.1217    -0.1365 H       
  28 H28            5.0451    -0.7833     6.1732 H       
  29 H29            4.9869    -0.4598     4.4239 H       
  30 H30            4.4180     0.7718     5.5762 H       
  31 H31            1.4359     1.4359     5.2995 H       
  32 H32            3.1277     1.6777     4.8019 H       
  33 H33            1.8195     1.8103     3.6022 H       
  34 H34            1.3258    -6.1227     3.4528 H       
  35 H35           -1.8144     0.1967     8.6098 H       
  36 H36            2.4672    -4.5918     1.8983 H       
  37 H37           -0.0125    -5.2180     5.3112 H       
  38 H38           -2.9010    -1.0367     6.7765 H       
  39 H39            0.5171     0.9527     8.3730 H       
  40 H40            2.2625    -2.1562     2.1964 H       
  41 H41           -0.2164    -2.7824     5.6100 H       
  42 H42           -1.6593    -1.5057     4.7025 H       
  43 H43            1.7591     0.4827     6.2995 H       
  44 H44            3.1367    -1.9596     5.1136 H       
  45 H45            2.5678    -0.7280     6.2658 H       
  46 H46            2.8026    -0.3456     3.2468 H       
  47 H47            1.2087    -1.5078     1.1434 H       
  48 H48            2.1038    -0.0184     1.5290 H       
  49 H49            1.8648    -1.5170    -2.4891 H       
@<TRIPOS>BOND
   1    1    2 1
   2    1   25 1
   3    1   26 1
   4    2   20 1
   5    2   23 1
   6    2   27 1
   7    3   15 1
   8    3   28 1
   9    3   29 1
  10    3   30 1
  11    4   18 1
  12    4   31 1
  13    4   32 1
  14    4   33 1
  15    5    7 ar
  16    5    8 ar
  17    5   34 1
  18    6    9 ar
  19    6   10 ar
  20    6   35 1
  21    7   11 ar
  22    7   36 1
  23    8   12 ar
  24    8   37 1
  25    9   13 ar
  26    9   38 1
  27   10   14 ar
  28   10   39 1
  29   11   16 ar
  30   11   40 1
  31   12   16 ar
  32   12   41 1
  33   13   17 ar
  34   13   42 1
  35   14   17 ar
  36   14   43 1
  37   15   18 1
  38   15   44 1
  39   15   45 1
  40   16   19 1
  41   17   19 1
  42   18   19 1
  43   18   46 1
  44   19   22 1
  45   20   21 2
  46   20   24 1
  47   22   23 1
  48   23   47 1
  49   23   48 1
  50   24   49 1

#	End of record

