#	Name: ASD03091482
#	Creating user name:	WinNT
#	Creation time:	15. 06. 2019 20:30

#	Modifying user name:	WinNT
#	Modification time:	15. 06. 2019 20:30

#	Program:	/corina/corina34_cracker 3.40 0067  02.08.2006

@<TRIPOS>MOLECULE
ASD03091482
  49   52    0    0    0
SMALL
NO_CHARGES


@<TRIPOS>ATOM
   1 N1            -0.0163     1.3523     0.0095 N.pl3   
   2 C2             0.0021    -0.0041     0.0020 C.2     
   3 C3             1.1379    -0.7091     0.2664 C.2     
   4 C4             2.3786     0.0269     0.5584 C.2     
   5 C5             2.3734     1.4687     0.2771 C.ar    
   6 C6             3.5464     2.2358     0.2734 C.ar    
   7 N7             3.4823     3.5322     0.0075 N.ar    
   8 C8             2.3380     4.1398    -0.2578 C.ar    
   9 C9             1.1413     3.4584    -0.2714 C.ar    
  10 C10            1.1399     2.0905     0.0024 C.ar    
  11 N11            4.7655     1.6421     0.5465 N.pl3   
  12 C12            5.9896     2.4470     0.5418 C.3     
  13 C13            7.1699     1.5681     0.8668 C.ar    
  14 C14            7.8593     0.9330    -0.1492 C.ar    
  15 C15            8.9419     0.1268     0.1489 C.ar    
  16 C16            9.3354    -0.0438     1.4631 C.ar    
  17 C17            8.6466     0.5920     2.4790 C.ar    
  18 C18            7.5666     1.4016     2.1805 C.ar    
  19 O19            3.3628    -0.5329     1.0121 O.2     
  20 C20            1.1240    -2.1921     0.2605 C.ar    
  21 C21            0.8701    -2.8835    -0.9230 C.ar    
  22 C22            0.8578    -4.2628    -0.9251 C.ar    
  23 C23            1.0980    -4.9623     0.2495 C.ar    
  24 C24            1.3512    -4.2768     1.4296 C.ar    
  25 C25            1.3706    -2.8976     1.4373 C.ar    
  26 O26            1.0848    -6.3214     0.2442 O.3     
  27 C27            1.3398    -6.9775     1.4878 C.3     
  28 C28            1.2839    -8.4930     1.2857 C.3     
  29 H29           -0.8701     1.8127     0.0160 H       
  30 H30           -0.9090    -0.5402    -0.2193 H       
  31 H31            2.3420     5.1989    -0.4690 H       
  32 H32            0.2183     3.9750    -0.4898 H       
  33 H33            4.8099     0.6929     0.7412 H       
  34 H34            6.1282     2.8917    -0.4437 H       
  35 H35            5.9081     3.2367     1.2886 H       
  36 H36            7.5518     1.0664    -1.1759 H       
  37 H37            9.4800    -0.3699    -0.6448 H       
  38 H38           10.1808    -0.6743     1.6960 H       
  39 H39            8.9538     0.4584     3.5057 H       
  40 H40            7.0307     1.9013     2.9739 H       
  41 H41            0.6827    -2.3399    -1.8372 H       
  42 H42            0.6607    -4.7991    -1.8416 H       
  43 H43            1.5374    -4.8239     2.3420 H       
  44 H44            1.5721    -2.3648     2.3549 H       
  45 H45            2.3280    -6.6956     1.8514 H       
  46 H46            0.5860    -6.6801     2.2168 H       
  47 H47            2.0377    -8.7904     0.5567 H       
  48 H48            1.4784    -8.9935     2.2343 H       
  49 H49            0.2957    -8.7749     0.9222 H       
@<TRIPOS>BOND
   1    1    2 1
   2    1   10 1
   3    1   29 1
   4    2    3 2
   5    2   30 1
   6    3    4 1
   7    3   20 1
   8    4    5 1
   9    4   19 2
  10    5    6 ar
  11    5   10 ar
  12    6    7 ar
  13    6   11 1
  14    7    8 ar
  15    8    9 ar
  16    8   31 1
  17    9   10 ar
  18    9   32 1
  19   11   12 1
  20   11   33 1
  21   12   13 1
  22   12   34 1
  23   12   35 1
  24   13   14 ar
  25   13   18 ar
  26   14   15 ar
  27   14   36 1
  28   15   16 ar
  29   15   37 1
  30   16   17 ar
  31   16   38 1
  32   17   18 ar
  33   17   39 1
  34   18   40 1
  35   20   21 ar
  36   20   25 ar
  37   21   22 ar
  38   21   41 1
  39   22   23 ar
  40   22   42 1
  41   23   24 ar
  42   23   26 1
  43   24   25 ar
  44   24   43 1
  45   25   44 1
  46   26   27 1
  47   27   28 1
  48   27   45 1
  49   27   46 1
  50   28   47 1
  51   28   48 1
  52   28   49 1

#	End of record

