#	Name: ASD01810832
#	Creating user name:	WinNT
#	Creation time:	15. 06. 2019 19:25

#	Modifying user name:	WinNT
#	Modification time:	15. 06. 2019 19:25

#	Program:	/corina/corina34_cracker 3.40 0067  02.08.2006

@<TRIPOS>MOLECULE
ASD01810832
  58   62    0    0    0
SMALL
NO_CHARGES


@<TRIPOS>ATOM
   1 C1            -0.0178     1.4608     0.0101 C.3     
   2 C2            -1.2262    -4.2886    -1.8223 C.ar    
   3 C3            -1.2827    -2.9361    -1.8684 C.ar    
   4 C4            -0.6171    -2.1465    -0.9179 C.ar    
   5 C5             0.1297    -2.7473     0.1119 C.ar    
   6 C6             0.1953    -4.2048     0.1671 C.ar    
   7 C7             0.9192    -4.8689     1.1624 C.ar    
   8 C8             0.9540    -6.2328     1.1763 C.ar    
   9 C9             0.2776    -6.9725     0.2115 C.ar    
  10 C10           -0.4369    -6.3558    -0.7719 C.ar    
  11 C11           -0.4953    -4.9545    -0.8162 C.ar    
  12 C12           -1.9619    -5.0962    -2.8604 C.3     
  13 C13           -4.4140    -4.6689    -2.5240 C.ar    
  14 C14           -3.3146    -5.4895    -2.3250 C.ar    
  15 C15           -3.4748    -6.6734    -1.6298 C.ar    
  16 N16           -4.6553    -7.0245    -1.1588 N.ar    
  17 C17           -5.6390    -5.0715    -2.0139 C.ar    
  18 C18           -5.7226    -6.2688    -1.3291 C.ar    
  19 C19           -0.6718    -0.6795    -0.9577 C.2     
  20 N20            0.0021    -0.0041     0.0020 N.am    
  21 C21            0.6962    -0.6731     0.9563 C.2     
  22 N22            0.7584    -1.9716     1.0109 N.2     
  23 O23           -1.2992    -0.0934    -1.8214 O.2     
  24 C24            1.4109     1.9910    -0.1270 C.3     
  25 C25            2.2567     1.4859     1.0436 C.3     
  26 C26            1.6533     1.9806     2.3597 C.3     
  27 C27            0.2246     1.4504     2.4967 C.3     
  28 C28           -0.6213     1.9554     1.3261 C.3     
  29 O29            1.3915     3.4198    -0.1191 O.3     
  30 C30            2.0143     1.4963    -1.4430 C.3     
  31 C31           -7.0489    -6.7164    -0.7709 C.3     
  32 H32           -0.6204     1.8206    -0.8239 H       
  33 H33           -1.8506    -2.4561    -2.6516 H       
  34 H34            1.4484    -4.3050     1.9163 H       
  35 H35            1.5137    -6.7444     1.9453 H       
  36 H36            0.3196    -8.0512     0.2420 H       
  37 H37           -0.9569    -6.9436    -1.5139 H       
  38 H38           -2.0882    -4.4986    -3.7632 H       
  39 H39           -1.3893    -5.9933    -3.0957 H       
  40 H40           -4.3178    -3.7360    -3.0596 H       
  41 H41           -2.6234    -7.3185    -1.4708 H       
  42 H42           -6.5167    -4.4570    -2.1501 H       
  43 H43            1.2223    -0.1008     1.7060 H       
  44 H44            2.2715     0.3961     1.0376 H       
  45 H45            3.2745     1.8637     0.9460 H       
  46 H46            2.2559     1.6208     3.1937 H       
  47 H47            1.6385     3.0705     2.3657 H       
  48 H48            0.2394     0.3605     2.4908 H       
  49 H49           -0.2053     1.8028     3.4343 H       
  50 H50           -0.6361     3.0453     1.3321 H       
  51 H51           -1.6391     1.5777     1.4238 H       
  52 H52            2.2653     3.8255    -0.2026 H       
  53 H53            1.4117     1.8561    -2.2770 H       
  54 H54            3.0321     1.8740    -1.5407 H       
  55 H55            2.0291     0.4064    -1.4490 H       
  56 H56           -7.1632    -6.3356     0.2440 H       
  57 H57           -7.8547    -6.3318    -1.3961 H       
  58 H58           -7.0882    -7.8056    -0.7569 H       
@<TRIPOS>BOND
   1    1   20 1
   2    1   24 1
   3    1   28 1
   4    1   32 1
   5    2    3 ar
   6    2   11 ar
   7    2   12 1
   8    3    4 ar
   9    3   33 1
  10    4    5 ar
  11    4   19 1
  12    5    6 ar
  13    5   22 1
  14    6    7 ar
  15    6   11 ar
  16    7    8 ar
  17    7   34 1
  18    8    9 ar
  19    8   35 1
  20    9   10 ar
  21    9   36 1
  22   10   11 ar
  23   10   37 1
  24   12   14 1
  25   12   38 1
  26   12   39 1
  27   13   14 ar
  28   13   17 ar
  29   13   40 1
  30   14   15 ar
  31   15   16 ar
  32   15   41 1
  33   16   18 ar
  34   17   18 ar
  35   17   42 1
  36   18   31 1
  37   19   20 am
  38   19   23 2
  39   20   21 1
  40   21   22 2
  41   21   43 1
  42   24   25 1
  43   24   29 1
  44   24   30 1
  45   25   26 1
  46   25   44 1
  47   25   45 1
  48   26   27 1
  49   26   46 1
  50   26   47 1
  51   27   28 1
  52   27   48 1
  53   27   49 1
  54   28   50 1
  55   28   51 1
  56   29   52 1
  57   30   53 1
  58   30   54 1
  59   30   55 1
  60   31   56 1
  61   31   57 1
  62   31   58 1

#	End of record

