#	Name: ASD03091128
#	Creating user name:	WinNT
#	Creation time:	15. 06. 2019 20:30

#	Modifying user name:	WinNT
#	Modification time:	15. 06. 2019 20:30

#	Program:	/corina/corina34_cracker 3.40 0067  02.08.2006

@<TRIPOS>MOLECULE
ASD03091128
  39   41    0    0    0
SMALL
NO_CHARGES


@<TRIPOS>ATOM
   1 C1            -0.7811     1.7877    -0.5868 C.2     
   2 C2            -0.5768     0.3312    -0.4345 C.ar    
   3 C3             0.7160    -0.1952    -0.4028 C.ar    
   4 C4             0.9041    -1.5547    -0.2606 C.ar    
   5 C5            -0.1841    -2.4000    -0.1487 C.ar    
   6 C6            -1.4751    -1.8861    -0.1791 C.ar    
   7 C7            -1.6746    -0.5206    -0.3164 C.ar    
   8 O8            -0.3117     2.3703    -1.5448 O.2     
   9 N9            -1.4924     2.4683     0.3336 N.am    
  10 N10            1.8848     0.7052    -0.5222 N.pl3   
  11 O11            3.0058     0.2385    -0.6172 O.2     
  12 O12            1.7255     1.9127    -0.5254 O.2     
  13 C13           -2.2361    -4.1128    -0.5724 C.3     
  14 N14           -2.5715    -2.7445    -0.0661 N.3     
  15 C15           -3.7063    -2.2689    -0.8937 C.3     
  16 C16           -4.0281    -3.4513    -1.8592 C.3     
  17 N17           -2.8737    -3.4695    -2.8120 N.3     
  18 C18           -1.6888    -3.8625    -2.0118 C.3     
  19 C19           -3.6652    -4.6609    -0.9251 C.3     
  20 C20           -2.6788    -2.1502    -3.4281 C.3     
  21 C21           -1.6948     3.9113     0.1827 C.3     
  22 H22            1.9049    -1.9599    -0.2370 H       
  23 H23           -0.0305    -3.4632    -0.0376 H       
  24 H24           -2.6768    -0.1187    -0.3361 H       
  25 H25           -1.8704     2.0026     1.0960 H       
  26 H26           -1.6145    -4.7268     0.0793 H       
  27 H27           -4.5682    -2.0491    -0.2638 H       
  28 H28           -3.4162    -1.3848    -1.4615 H       
  29 H29           -5.0213    -3.4499    -2.3082 H       
  30 H30           -0.9542    -3.0573    -2.0027 H       
  31 H31           -1.2469    -4.7746    -2.4127 H       
  32 H32           -3.6246    -5.6056    -1.4673 H       
  33 H33           -4.3141    -4.7189    -0.0512 H       
  34 H34           -2.3121    -1.4495    -2.6781 H       
  35 H35           -1.9521    -2.2305    -4.2365 H       
  36 H36           -3.6278    -1.7918    -3.8270 H       
  37 H37           -0.7281     4.4147     0.1722 H       
  38 H38           -2.2176     4.1090    -0.7530 H       
  39 H39           -2.2894     4.2840     1.0169 H       
@<TRIPOS>BOND
   1    1    2 1
   2    1    8 2
   3    1    9 am
   4    2    3 ar
   5    2    7 ar
   6    3    4 ar
   7    3   10 1
   8    4    5 ar
   9    4   22 1
  10    5    6 ar
  11    5   23 1
  12    6    7 ar
  13    6   14 1
  14    7   24 1
  15    9   21 1
  16    9   25 1
  17   10   11 2
  18   10   12 2
  19   13   14 1
  20   13   18 1
  21   13   19 1
  22   13   26 1
  23   14   15 1
  24   15   16 1
  25   15   27 1
  26   15   28 1
  27   16   17 1
  28   16   19 1
  29   16   29 1
  30   17   18 1
  31   17   20 1
  32   18   30 1
  33   18   31 1
  34   19   32 1
  35   19   33 1
  36   20   34 1
  37   20   35 1
  38   20   36 1
  39   21   37 1
  40   21   38 1
  41   21   39 1

#	End of record

