#	Name: ASD00310184
#	Creating user name:	WinNT
#	Creation time:	15. 06. 2019 18:33

#	Modifying user name:	WinNT
#	Modification time:	15. 06. 2019 18:33

#	Program:	/corina/corina34_cracker 3.40 0067  02.08.2006

@<TRIPOS>MOLECULE
ASD00310184
   4    3    0    0    0
SMALL
NO_CHARGES


@<TRIPOS>ATOM
   1 H1             0.0021    -0.0041     0.0020 H       
   2 O2            -0.0110     0.9628     0.0073 O.3     
   3 O3             1.3227     1.5785    -0.0021 O.3     
   4 H4             1.3096     2.5454     0.0032 H       
@<TRIPOS>BOND
   1    1    2 1
   2    2    3 1
   3    3    4 1

#	End of record

