#	Name: ASD03331938
#	Creating user name:	WinNT
#	Creation time:	15. 06. 2019 20:40

#	Modifying user name:	WinNT
#	Modification time:	15. 06. 2019 20:40

#	Program:	/corina/corina34_cracker 3.40 0067  02.08.2006

@<TRIPOS>MOLECULE
ASD03331938
  75   78    0    0    0
SMALL
NO_CHARGES


@<TRIPOS>ATOM
   1 C1            -1.6911     0.3938     0.5406 C.2     
   2 N2            -1.5885    -0.9255     0.8517 N.pl3   
   3 C3            -0.2612    -1.2403     0.8684 C.2     
   4 N4             0.4292    -0.1573     0.5986 N.2     
   5 C5            -0.4238     0.8703     0.3940 C.2     
   6 C6            -0.0497     2.2584     0.0702 C.2     
   7 O7            -0.9136     3.0989    -0.0924 O.2     
   8 N8             1.2498     2.5965    -0.0457 N.am    
   9 C9             1.6217     3.9765    -0.3676 C.3     
  10 C10            1.5866     4.1735    -1.8845 C.3     
  11 C11            2.6508     3.2898    -2.5383 C.3     
  12 C12            3.0121     4.2542     0.1430 C.2     
  13 C13            0.2053     3.7873    -2.4171 C.3     
  14 C14            1.8687     5.6406    -2.2149 C.3     
  15 O15            3.6961     3.3456     0.5643 O.2     
  16 N16            3.4955     5.5122     0.1314 N.am    
  17 C17            4.8724     5.7718     0.5592 C.3     
  18 C18           -2.7128    -1.8228     1.1319 C.3     
  19 C19           -3.7860    -1.6339     0.0552 C.3     
  20 C20           -4.7312    -0.5076     0.4608 C.3     
  21 N21           -4.0200     0.5359     1.2020 N.3     
  22 C22           -2.9769     1.1619     0.3761 C.3     
  23 C23           -4.9550     1.5427     1.7216 C.3     
  24 C24            0.3053    -2.5787     1.1450 C.ar    
  25 C25            1.5065    -2.9620     0.5557 C.ar    
  26 C26            2.0347    -4.2247     0.8206 C.ar    
  27 C27            1.3541    -5.0975     1.6765 C.ar    
  28 C28            0.1599    -4.7076     2.2582 C.ar    
  29 C29           -0.3622    -3.4569     2.0025 C.ar    
  30 F30            1.8626    -6.3221     1.9353 F       
  31 C31            3.3087    -4.6400     0.1991 C.2     
  32 N32            3.4674    -4.5517    -1.1364 N.am    
  33 O33            4.2142    -5.0614     0.8922 O.2     
  34 C34            4.6966    -5.0327    -1.7866 C.3     
  35 C35            2.4138    -3.9770    -1.9880 C.3     
  36 C36            2.1345    -4.9532    -3.1365 C.3     
  37 O37            3.3656    -5.2823    -3.7845 O.3     
  38 C38            4.3015    -5.9553    -2.9453 C.3     
  39 H39            1.9388     1.9262     0.0840 H       
  40 H40            0.9177     4.6620     0.1042 H       
  41 H41            2.4498     2.2447    -2.3029 H       
  42 H42            2.6258     3.4302    -3.6189 H       
  43 H43            3.6348     3.5650    -2.1588 H       
  44 H44           -0.5528     4.4168    -1.9513 H       
  45 H45            0.1803     3.9276    -3.4978 H       
  46 H46            0.0044     2.7421    -2.1818 H       
  47 H47            2.8617     5.9097    -1.8548 H       
  48 H48            1.8219     5.7854    -3.2942 H       
  49 H49            1.1234     6.2718    -1.7309 H       
  50 H50            2.9317     6.2457    -0.1602 H       
  51 H51            5.0818     6.8387     0.4818 H       
  52 H52            4.9982     5.4509     1.5932 H       
  53 H53            5.5615     5.2190    -0.0792 H       
  54 H54           -2.3655    -2.8560     1.1228 H       
  55 H55           -3.1323    -1.5869     2.1098 H       
  56 H56           -3.3088    -1.3831    -0.8922 H       
  57 H57           -4.3519    -2.5585    -0.0587 H       
  58 H58           -5.1733    -0.0717    -0.4351 H       
  59 H59           -5.5242    -0.9146     1.0881 H       
  60 H60           -2.8287     2.1933     0.6960 H       
  61 H61           -3.2809     1.1438    -0.6705 H       
  62 H62           -5.6696     1.0638     2.3910 H       
  63 H63           -4.4005     2.3058     2.2679 H       
  64 H64           -5.4886     2.0057     0.8916 H       
  65 H65            2.0271    -2.2841    -0.1044 H       
  66 H66           -0.3630    -5.3840     2.9181 H       
  67 H67           -1.2940    -3.1587     2.4598 H       
  68 H68            5.2651    -4.1852    -2.1696 H       
  69 H69            5.3006    -5.5853    -1.0669 H       
  70 H70            1.5067    -3.8309    -1.4015 H       
  71 H71            2.7485    -3.0214    -2.3916 H       
  72 H72            1.6777    -5.8602    -2.7404 H       
  73 H73            1.4586    -4.4876    -3.8538 H       
  74 H74            5.1907    -6.2094    -3.5222 H       
  75 H75            3.8491    -6.8658    -2.5523 H       
@<TRIPOS>BOND
   1    1    2 1
   2    1    5 2
   3    1   22 1
   4    2    3 1
   5    2   18 1
   6    3    4 2
   7    3   24 1
   8    4    5 1
   9    5    6 1
  10    6    7 2
  11    6    8 am
  12    8    9 1
  13    8   39 1
  14    9   10 1
  15    9   12 1
  16    9   40 1
  17   10   11 1
  18   10   13 1
  19   10   14 1
  20   11   41 1
  21   11   42 1
  22   11   43 1
  23   12   15 2
  24   12   16 am
  25   13   44 1
  26   13   45 1
  27   13   46 1
  28   14   47 1
  29   14   48 1
  30   14   49 1
  31   16   17 1
  32   16   50 1
  33   17   51 1
  34   17   52 1
  35   17   53 1
  36   18   19 1
  37   18   54 1
  38   18   55 1
  39   19   20 1
  40   19   56 1
  41   19   57 1
  42   20   21 1
  43   20   58 1
  44   20   59 1
  45   21   22 1
  46   21   23 1
  47   22   60 1
  48   22   61 1
  49   23   62 1
  50   23   63 1
  51   23   64 1
  52   24   25 ar
  53   24   29 ar
  54   25   26 ar
  55   25   65 1
  56   26   27 ar
  57   26   31 1
  58   27   28 ar
  59   27   30 1
  60   28   29 ar
  61   28   66 1
  62   29   67 1
  63   31   32 am
  64   31   33 2
  65   32   34 1
  66   32   35 1
  67   34   38 1
  68   34   68 1
  69   34   69 1
  70   35   36 1
  71   35   70 1
  72   35   71 1
  73   36   37 1
  74   36   72 1
  75   36   73 1
  76   37   38 1
  77   38   74 1
  78   38   75 1

#	End of record

