#	Name: ASD01811109
#	Creating user name:	WinNT
#	Creation time:	15. 06. 2019 19:26

#	Modifying user name:	WinNT
#	Modification time:	15. 06. 2019 19:26

#	Program:	/corina/corina34_cracker 3.40 0067  02.08.2006

@<TRIPOS>MOLECULE
ASD01811109
  52   55    0    0    0
SMALL
NO_CHARGES


@<TRIPOS>ATOM
   1 C1            -1.9066     1.4014     0.0374 C.2     
   2 C2            -2.0105     0.0627     0.0826 C.2     
   3 N3            -0.9003    -0.7284    -0.0086 N.pl3   
   4 C4             0.3412    -0.2442    -0.1331 C.2     
   5 C5             0.5525     1.1197    -0.1787 C.2     
   6 C6            -0.6215     1.9978    -0.0941 C.2     
   7 C7            -1.0779    -2.1820     0.0326 C.3     
   8 C8            -0.8981    -2.6702     1.4469 C.ar    
   9 O9            -0.4971     3.2118    -0.1282 O.2     
  10 C10            1.9087     1.6746    -0.3123 C.2     
  11 O11            2.8659     0.9291    -0.3845 O.2     
  12 O12            2.0895     3.0095    -0.3546 O.3     
  13 C13           -2.0039    -2.8622     2.2554 C.ar    
  14 C14           -1.8451    -3.3091     3.5515 C.ar    
  15 C15           -0.5678    -3.5671     4.0452 C.ar    
  16 C16            0.5427    -3.3719     3.2263 C.ar    
  17 C17            0.3717    -2.9300     1.9300 C.ar    
  18 C18           -3.0929     2.3253     0.1128 C.3     
  19 C19           -4.3118     1.5969     0.6749 C.3     
  20 C20           -4.4910     0.2908    -0.1090 C.3     
  21 C21           -3.3354    -0.6415     0.2447 C.3     
  22 O22           -2.7744     3.4316     0.9594 O.3     
  23 C23           -0.3907    -4.0473     5.4379 C.ar    
  24 C24           -1.4946    -4.2443     6.2623 C.ar    
  25 N25           -1.3416    -4.6707     7.5001 N.ar    
  26 C26           -0.1464    -4.9267     8.0060 C.ar    
  27 C27            1.0032    -4.7535     7.2439 C.ar    
  28 C28            0.8880    -4.3140     5.9393 C.ar    
  29 O29           -0.0412    -5.3639     9.2859 O.3     
  30 C30           -1.2574    -5.5222    10.0194 C.3     
  31 H31            1.1797    -0.9217    -0.1977 H       
  32 H32           -2.0795    -2.4356    -0.3148 H       
  33 H33           -0.3386    -2.6568    -0.6124 H       
  34 H34            2.9986     3.3268    -0.4431 H       
  35 H35           -2.9934    -2.6616     1.8719 H       
  36 H36           -2.7091    -3.4584     4.1820 H       
  37 H37            1.5349    -3.5703     3.6039 H       
  38 H38            1.2316    -2.7788     1.2943 H       
  39 H39           -3.3246     2.6941    -0.8864 H       
  40 H40           -4.1530     1.3739     1.7300 H       
  41 H41           -5.1986     2.2200     0.5593 H       
  42 H42           -5.4370    -0.1758     0.1655 H       
  43 H43           -4.4804     0.4998    -1.1787 H       
  44 H44           -3.3621    -1.5111    -0.4120 H       
  45 H45           -3.4429    -0.9700     1.2784 H       
  46 H46           -3.4926     4.0718     1.0569 H       
  47 H47           -2.4865    -4.0454     5.8841 H       
  48 H48            1.9749    -4.9646     7.6654 H       
  49 H49            1.7642    -4.1710     5.3243 H       
  50 H50           -1.7733    -4.5639    10.0787 H       
  51 H51           -1.8948    -6.2475     9.5137 H       
  52 H52           -1.0315    -5.8761    11.0253 H       
@<TRIPOS>BOND
   1    1    2 2
   2    1   18 1
   3    1    6 1
   4    2    3 1
   5    2   21 1
   6    3    4 1
   7    3    7 1
   8    4    5 2
   9    4   31 1
  10    5    6 1
  11    5   10 1
  12    6    9 2
  13    7    8 1
  14    7   32 1
  15    7   33 1
  16    8   13 ar
  17    8   17 ar
  18   10   11 2
  19   10   12 1
  20   12   34 1
  21   13   14 ar
  22   13   35 1
  23   14   15 ar
  24   14   36 1
  25   15   16 ar
  26   15   23 1
  27   16   17 ar
  28   16   37 1
  29   17   38 1
  30   18   19 1
  31   18   22 1
  32   18   39 1
  33   19   20 1
  34   19   40 1
  35   19   41 1
  36   20   21 1
  37   20   42 1
  38   20   43 1
  39   21   44 1
  40   21   45 1
  41   22   46 1
  42   23   24 ar
  43   23   28 ar
  44   24   25 ar
  45   24   47 1
  46   25   26 ar
  47   26   27 ar
  48   26   29 1
  49   27   28 ar
  50   27   48 1
  51   28   49 1
  52   29   30 1
  53   30   50 1
  54   30   51 1
  55   30   52 1

#	End of record

