#	Name: ASD04220018
#	Creating user name:	WinNT
#	Creation time:	15. 06. 2019 20:48

#	Modifying user name:	WinNT
#	Modification time:	15. 06. 2019 20:48

#	Program:	/corina/corina34_cracker 3.40 0067  02.08.2006

@<TRIPOS>MOLECULE
ASD04220018
  35   36    0    0    0
SMALL
NO_CHARGES


@<TRIPOS>ATOM
   1 C1            -0.0178     1.4621     0.0101 C.3     
   2 N2             0.0021    -0.0041     0.0020 N.3     
   3 C3             0.8389    -0.4957    -1.1042 C.3     
   4 C4             2.3029    -0.2084    -0.7696 C.3     
   5 C5             2.4648     1.2344    -0.3651 C.ar    
   6 C6             3.7432     1.7837    -0.3642 C.ar    
   7 C7             3.9370     3.1046     0.0044 C.ar    
   8 C8             2.8553     3.8811     0.3728 C.ar    
   9 C9             1.5824     3.3358     0.3706 C.ar    
  10 C10            1.3857     2.0087    -0.0004 C.ar    
  11 C11            0.6391    -1.9802    -1.2692 C.2     
  12 O12            0.1863    -2.6337    -0.3594 O.2     
  13 O13            0.9641    -2.5766    -2.4270 O.3     
  14 O14            0.5185     4.1011     0.7332 O.3     
  15 C15            0.7890     5.4546     1.1032 C.3     
  16 O16            4.8080     1.0195    -0.7265 O.3     
  17 C17            6.0928     1.6445    -0.7039 C.3     
  18 C18            0.7448    -4.0092    -2.5149 C.3     
  19 H19           -0.5496     1.8195    -0.8717 H       
  20 H20           -0.5327     1.8100     0.9056 H       
  21 H21            0.3236    -0.3662     0.8872 H       
  22 H22            0.5663     0.0182    -2.0260 H       
  23 H23            2.6195    -0.8520     0.0511 H       
  24 H24            2.9205    -0.4104    -1.6448 H       
  25 H25            4.9312     3.5265     0.0040 H       
  26 H26            3.0022     4.9111     0.6624 H       
  27 H27           -0.1437     5.9519     1.3693 H       
  28 H28            1.4654     5.4694     1.9579 H       
  29 H29            1.2518     5.9750     0.2646 H       
  30 H30            6.0958     2.4938    -1.3871 H       
  31 H31            6.3109     1.9903     0.3066 H       
  32 H32            6.8518     0.9262    -1.0138 H       
  33 H33            1.0483    -4.3635    -3.5000 H       
  34 H34            1.3340    -4.5146    -1.7497 H       
  35 H35           -0.3125    -4.2251    -2.3610 H       
@<TRIPOS>BOND
   1    1    2 1
   2    1   10 1
   3    1   19 1
   4    1   20 1
   5    2    3 1
   6    2   21 1
   7    3    4 1
   8    3   11 1
   9    3   22 1
  10    4    5 1
  11    4   23 1
  12    4   24 1
  13    5    6 ar
  14    5   10 ar
  15    6    7 ar
  16    6   16 1
  17    7    8 ar
  18    7   25 1
  19    8    9 ar
  20    8   26 1
  21    9   10 ar
  22    9   14 1
  23   11   12 2
  24   11   13 1
  25   13   18 1
  26   14   15 1
  27   15   27 1
  28   15   28 1
  29   15   29 1
  30   16   17 1
  31   17   30 1
  32   17   31 1
  33   17   32 1
  34   18   33 1
  35   18   34 1
  36   18   35 1

#	End of record

