#	Name: ASD05490110
#	Creating user name:	WinNT
#	Creation time:	15. 06. 2019 21:01

#	Modifying user name:	WinNT
#	Modification time:	15. 06. 2019 21:01

#	Program:	/corina/corina34_cracker 3.40 0067  02.08.2006

@<TRIPOS>MOLECULE
ASD05490110
  68   72    0    0    0
SMALL
NO_CHARGES


@<TRIPOS>ATOM
   1 O1            -2.2645     1.9618     0.1826 O.2     
   2 N2            -0.0850     1.3570    -0.0778 N.am    
   3 O3             4.5986     2.1890    -0.7164 O.3     
   4 N4             3.0511     3.8935    -0.5612 N.ar    
   5 C5             1.8046     4.3372    -0.4104 C.ar    
   6 C6             3.3156     2.5968    -0.5598 C.ar    
   7 N7             2.3683     1.6859    -0.4093 N.ar    
   8 C8             1.0996     2.0491    -0.2529 C.ar    
   9 C9             0.7790     3.4072    -0.2495 C.ar    
  10 N10            1.5325     5.6975    -0.4129 N.pl3   
  11 C11           -1.0919     2.2455     0.0230 C.2     
  12 N12           -0.6011     3.4971    -0.0710 N.am    
  13 C13            5.5884     3.2076    -0.8743 C.3     
  14 C14            6.9651     2.5601    -1.0366 C.3     
  15 O15            6.9981     1.8092    -2.2520 O.3     
  16 C16            8.2468     1.1604    -2.5006 C.3     
  17 C17           -0.2222    -0.1003    -0.0184 C.3     
  18 C18           -0.0847    -0.5600     1.4102 C.ar    
  19 C19           -1.2054    -0.6524     2.2152 C.ar    
  20 C20           -1.0852    -1.0728     3.5245 C.ar    
  21 C21            0.1681    -1.4048     4.0345 C.ar    
  22 C22            1.2940    -1.3102     3.2187 C.ar    
  23 C23            1.1616    -0.8934     1.9099 C.ar    
  24 C24            0.3036    -1.8569     5.4413 C.ar    
  25 C25            1.1251    -1.1586     6.3242 C.ar    
  26 C26           -0.3943    -2.9777     5.8858 C.ar    
  27 C27           -0.2645    -3.3939     7.1955 C.ar    
  28 C28            0.5566    -2.7005     8.0659 C.ar    
  29 C29            1.2475    -1.5835     7.6314 C.ar    
  30 C30            3.4766    -2.8575     8.7302 C.3     
  31 C31            4.7628    -3.2272     9.4920 C.3     
  32 C32            5.4897    -1.8842     9.7327 C.3     
  33 C33            4.3456    -0.8457     9.6184 C.3     
  34 N34            3.4980    -1.3925     8.5281 N.3     
  35 C35            2.1408    -0.8333     8.5856 C.3     
  36 C36           -2.3072    -1.1721     4.4008 C.3     
  37 F37           -3.4121    -0.6478     3.7213 F       
  38 F38           -2.5473    -2.5138     4.7159 F       
  39 F39           -2.0968    -0.4469     5.5784 F       
  40 H40            2.2538     6.3362    -0.5254 H       
  41 H41            0.6209     6.0099    -0.3023 H       
  42 H42           -1.1181     4.3167    -0.0289 H       
  43 H43            5.3600     3.8021    -1.7589 H       
  44 H44            5.5909     3.8512     0.0053 H       
  45 H45            7.7300     3.3359    -1.0679 H       
  46 H46            7.1557     1.8957    -0.1938 H       
  47 H47            9.0383     1.9072    -2.5623 H       
  48 H48            8.4640     0.4670    -1.6881 H       
  49 H49            8.1905     0.6121    -3.4409 H       
  50 H50           -1.2016    -0.3889    -0.4002 H       
  51 H51            0.5554    -0.5636    -0.6256 H       
  52 H52           -2.1765    -0.3948     1.8188 H       
  53 H53            2.2679    -1.5664     3.6090 H       
  54 H54            2.0334    -0.8197     1.2768 H       
  55 H55            1.6652    -0.2867     5.9860 H       
  56 H56           -1.0361    -3.5198     5.2070 H       
  57 H57           -0.8054    -4.2625     7.5412 H       
  58 H58            0.6550    -3.0294     9.0899 H       
  59 H59            3.4573    -3.3652     7.7658 H       
  60 H60            2.6029    -3.1385     9.3183 H       
  61 H61            4.5167    -3.6999    10.4429 H       
  62 H62            5.3828    -3.8901     8.8884 H       
  63 H63            5.9350    -1.8595    10.7273 H       
  64 H64            6.2452    -1.7118     8.9662 H       
  65 H65            3.7836    -0.7882    10.5505 H       
  66 H66            4.7402     0.1329     9.3448 H       
  67 H67            2.1694     0.2195     8.3049 H       
  68 H68            1.7512    -0.9287     9.5991 H       
@<TRIPOS>BOND
   1    1   11 2
   2    2   17 1
   3    2    8 1
   4    2   11 am
   5    3   13 1
   6    3    6 1
   7    4    5 ar
   8    4    6 ar
   9    5   10 1
  10    5    9 ar
  11    6    7 ar
  12    7    8 ar
  13    8    9 ar
  14    9   12 1
  15   10   40 1
  16   10   41 1
  17   11   12 am
  18   12   42 1
  19   13   14 1
  20   13   43 1
  21   13   44 1
  22   14   15 1
  23   14   45 1
  24   14   46 1
  25   15   16 1
  26   16   47 1
  27   16   48 1
  28   16   49 1
  29   17   18 1
  30   17   50 1
  31   17   51 1
  32   18   19 ar
  33   18   23 ar
  34   19   20 ar
  35   19   52 1
  36   20   21 ar
  37   20   36 1
  38   21   22 ar
  39   21   24 1
  40   22   23 ar
  41   22   53 1
  42   23   54 1
  43   24   25 ar
  44   24   26 ar
  45   25   29 ar
  46   25   55 1
  47   26   27 ar
  48   26   56 1
  49   27   28 ar
  50   27   57 1
  51   28   29 ar
  52   28   58 1
  53   29   35 1
  54   30   31 1
  55   30   34 1
  56   30   59 1
  57   30   60 1
  58   31   32 1
  59   31   61 1
  60   31   62 1
  61   32   33 1
  62   32   63 1
  63   32   64 1
  64   33   34 1
  65   33   65 1
  66   33   66 1
  67   34   35 1
  68   35   67 1
  69   35   68 1
  70   36   37 1
  71   36   38 1
  72   36   39 1

#	End of record

