#	Name: ASD01410401
#	Creating user name:	WinNT
#	Creation time:	15. 06. 2019 19:17

#	Modifying user name:	WinNT
#	Modification time:	15. 06. 2019 19:17

#	Program:	/corina/corina34_cracker 3.40 0067  02.08.2006

@<TRIPOS>MOLECULE
ASD01410401
  41   43    0    0    0
SMALL
NO_CHARGES


@<TRIPOS>ATOM
   1 S1             0.0321     1.7595    -0.5813 S.3     
   2 C2             0.1047     0.0033    -0.8074 C.2     
   3 N3             1.3805    -0.3595    -0.6325 N.am    
   4 C4             2.2870     0.5606    -0.3481 C.2     
   5 C5             1.7678     1.9320    -0.2528 C.2     
   6 O6             3.4615     0.2920    -0.1778 O.2     
   7 S7            -1.2076    -1.0318    -1.1779 S.2     
   8 C8             2.4560     3.0675     0.0225 C.2     
   9 C9             1.7916     4.3746    -0.0869 C.ar    
  10 C10            2.3135     5.4863     0.5868 C.ar    
  11 C11            1.6911     6.7138     0.4852 C.ar    
  12 C12            0.5503     6.8570    -0.2795 C.ar    
  13 C13            0.0159     5.7562    -0.9591 C.ar    
  14 C14            0.6422     4.5126    -0.8671 C.ar    
  15 N15            1.7536    -1.7049    -0.7494 N.am    
  16 S16            2.2206    -2.3100    -2.2184 S.o2    
  17 O17            2.6753    -3.6351    -1.9804 O.2     
  18 O18            1.1767    -1.9986    -3.1308 O.2     
  19 C19            3.6283    -1.3870    -2.7391 C.ar    
  20 C20            4.8983    -1.8087    -2.3923 C.ar    
  21 C21            6.0026    -1.0846    -2.8007 C.ar    
  22 C22            5.8371     0.0611    -3.5563 C.ar    
  23 C23            4.5672     0.4823    -3.9039 C.ar    
  24 C24            3.4631    -0.2442    -3.4991 C.ar    
  25 C25           -1.2006     5.9113    -1.7734 C.2     
  26 C26           -1.9448     7.2217    -1.7742 C.3     
  27 O27           -1.6037     4.9847    -2.4435 O.2     
  28 H28            3.4921     3.0117     0.3221 H       
  29 H29            3.2049     5.3824     1.1876 H       
  30 H30            2.0983     7.5672     1.0071 H       
  31 H31            0.0689     7.8209    -0.3532 H       
  32 H32            0.2372     3.6605    -1.3927 H       
  33 H33            1.7384    -2.2819     0.0302 H       
  34 H34            5.0276    -2.7038    -1.8019 H       
  35 H35            6.9948    -1.4137    -2.5291 H       
  36 H36            6.6999     0.6272    -3.8748 H       
  37 H37            4.4379     1.3776    -4.4939 H       
  38 H38            2.4709     0.0849    -3.7706 H       
  39 H39           -1.3885     7.9558    -1.1913 H       
  40 H40           -2.0527     7.5777    -2.7988 H       
  41 H41           -2.9314     7.0795    -1.3331 H       
@<TRIPOS>BOND
   1    1    2 1
   2    1    5 1
   3    2    3 am
   4    2    7 2
   5    3    4 am
   6    3   15 1
   7    4    5 1
   8    4    6 2
   9    5    8 2
  10    8    9 1
  11    8   28 1
  12    9   10 ar
  13    9   14 ar
  14   10   11 ar
  15   10   29 1
  16   11   12 ar
  17   11   30 1
  18   12   13 ar
  19   12   31 1
  20   13   14 ar
  21   13   25 1
  22   14   32 1
  23   15   16 am
  24   15   33 1
  25   16   17 2
  26   16   18 2
  27   16   19 1
  28   19   20 ar
  29   19   24 ar
  30   20   21 ar
  31   20   34 1
  32   21   22 ar
  33   21   35 1
  34   22   23 ar
  35   22   36 1
  36   23   24 ar
  37   23   37 1
  38   24   38 1
  39   25   26 1
  40   25   27 2
  41   26   39 1
  42   26   40 1
  43   26   41 1

#	End of record

