#	Name: ASD01881012
#	Creating user name:	WinNT
#	Creation time:	15. 06. 2019 19:41

#	Modifying user name:	WinNT
#	Modification time:	15. 06. 2019 19:41

#	Program:	/corina/corina34_cracker 3.40 0067  02.08.2006

@<TRIPOS>MOLECULE
ASD01881012
  40   41    0    0    0
SMALL
NO_CHARGES


@<TRIPOS>ATOM
   1 O1            -0.0176     1.4526     0.0207 O.3     
   2 C2             0.0020    -0.0040    -0.0061 C.3     
   3 C3             1.5018    -0.3565    -0.0298 C.3     
   4 N4             2.1700     0.9538    -0.0135 N.am    
   5 C5             1.2375     1.9158     0.0148 C.2     
   6 C6            -0.6629    -0.5726     1.2491 C.3     
   7 C7            -2.1543    -0.2313     1.2353 C.3     
   8 C8            -2.8191    -0.7999     2.4906 C.3     
   9 C9            -4.3105    -0.4587     2.4768 C.3     
  10 C10           -4.9754    -1.0272     3.7321 C.3     
  11 C11           -6.4668    -0.6860     3.7183 C.3     
  12 O12            1.5072     3.1004     0.0333 O.2     
  13 C13            3.5500     1.1614    -0.0249 C.ar    
  14 C14            4.0565     2.4528    -0.1280 C.ar    
  15 C15            5.4175     2.6613    -0.1399 C.ar    
  16 C16            6.2904     1.5735    -0.0479 C.ar    
  17 C17            5.7777     0.2773     0.0560 C.ar    
  18 C18            4.4155     0.0768     0.0726 C.ar    
  19 C19            7.7064     1.7863    -0.0605 C.1     
  20 N20            8.8297     1.9552    -0.0705 N.1     
  21 H21           -0.4922    -0.3763    -0.9035 H       
  22 H22            1.7730    -0.9356     0.8529 H       
  23 H23            1.7524    -0.9028    -0.9391 H       
  24 H24           -0.5380    -1.6552     1.2677 H       
  25 H25           -0.1989    -0.1380     2.1345 H       
  26 H26           -2.2791     0.8513     1.2167 H       
  27 H27           -2.6182    -0.6658     0.3499 H       
  28 H28           -2.6942    -1.8826     2.5092 H       
  29 H29           -2.3551    -0.3654     3.3760 H       
  30 H30           -4.4354     0.6240     2.4582 H       
  31 H31           -4.7745    -0.8932     1.5914 H       
  32 H32           -4.8505    -2.1099     3.7507 H       
  33 H33           -4.5114    -0.5927     4.6175 H       
  34 H34           -6.9404    -1.0911     4.6126 H       
  35 H35           -6.5916     0.3966     3.6997 H       
  36 H36           -6.9307    -1.1205     2.8329 H       
  37 H37            3.3815     3.2928    -0.1990 H       
  38 H38            5.8101     3.6642    -0.2207 H       
  39 H39            6.4491    -0.5657     0.1269 H       
  40 H40            4.0186    -0.9244     0.1529 H       
@<TRIPOS>BOND
   1    1    2 1
   2    1    5 1
   3    2    3 1
   4    2    6 1
   5    2   21 1
   6    3    4 1
   7    3   22 1
   8    3   23 1
   9    4    5 am
  10    4   13 1
  11    5   12 2
  12    6    7 1
  13    6   24 1
  14    6   25 1
  15    7    8 1
  16    7   26 1
  17    7   27 1
  18    8    9 1
  19    8   28 1
  20    8   29 1
  21    9   10 1
  22    9   30 1
  23    9   31 1
  24   10   11 1
  25   10   32 1
  26   10   33 1
  27   11   34 1
  28   11   35 1
  29   11   36 1
  30   13   14 ar
  31   13   18 ar
  32   14   15 ar
  33   14   37 1
  34   15   16 ar
  35   15   38 1
  36   16   17 ar
  37   16   19 1
  38   17   18 ar
  39   17   39 1
  40   18   40 1
  41   19   20 3

#	End of record

