#	Name: ASD01815592
#	Creating user name:	WinNT
#	Creation time:	15. 06. 2019 19:33

#	Modifying user name:	WinNT
#	Modification time:	15. 06. 2019 19:33

#	Program:	/corina/corina34_cracker 3.40 0067  02.08.2006

@<TRIPOS>MOLECULE
ASD01815592
  38   40    0    0    0
SMALL
NO_CHARGES


@<TRIPOS>ATOM
   1 C1            -0.0168     1.3852     0.0097 C.ar    
   2 C2             0.0021    -0.0041     0.0020 C.ar    
   3 C3            -1.1728    -0.7235     0.0094 C.ar    
   4 C4            -2.3962    -0.0590     0.0246 C.ar    
   5 C5            -2.4138     1.3462     0.0328 C.ar    
   6 C6            -1.2179     2.0635     0.0305 C.ar    
   7 N7            -3.5781    -0.7689     0.0311 N.pl3   
   8 C8            -4.7795    -0.1781     0.0448 C.2     
   9 C9            -4.9240     1.1948     0.0540 C.2     
  10 C10           -3.7170     2.0368     0.0490 C.2     
  11 O11           -3.7910     3.2531     0.0570 O.2     
  12 C12           -6.2609     1.8053     0.0686 C.2     
  13 O13           -7.2511     1.1001     0.0726 O.2     
  14 O14           -6.3890     3.1472     0.0774 O.3     
  15 C15           -3.5168    -2.2326     0.0221 C.3     
  16 C16           -3.4830    -2.7427     1.4398 C.ar    
  17 C17           -4.6646    -3.0264     2.0993 C.ar    
  18 C18           -4.6358    -3.4947     3.4006 C.ar    
  19 C19           -3.4183    -3.6798     4.0433 C.ar    
  20 C20           -2.2357    -3.3944     3.3780 C.ar    
  21 C21           -2.2703    -2.9314     2.0765 C.ar    
  22 O22           -3.3864    -4.1395     5.3224 O.3     
  23 F23            1.1453     2.0742     0.0023 F       
  24 F24           -5.7902    -3.7713     4.0457 F       
  25 C25           -2.0990    -4.3056     5.9200 C.3     
  26 H26            0.9478    -0.5255    -0.0102 H       
  27 H27           -1.1448    -1.8031     0.0029 H       
  28 H28           -1.2320     3.1434     0.0368 H       
  29 H29           -5.6651    -0.7962     0.0485 H       
  30 H30           -7.2884     3.5023     0.0869 H       
  31 H31           -4.3954    -2.6300    -0.4862 H       
  32 H32           -2.6170    -2.5554    -0.5017 H       
  33 H33           -5.6104    -2.8821     1.5984 H       
  34 H34           -1.2879    -3.5371     3.8756 H       
  35 H35           -1.3491    -2.7096     1.5584 H       
  36 H36           -1.5814    -3.3466     5.9404 H       
  37 H37           -2.2163    -4.6770     6.9381 H       
  38 H38           -1.5175    -5.0201     5.3374 H       
@<TRIPOS>BOND
   1    1    2 ar
   2    1   23 1
   3    1    6 ar
   4    2    3 ar
   5    2   26 1
   6    3    4 ar
   7    3   27 1
   8    4    5 ar
   9    4    7 1
  10    5    6 ar
  11    5   10 1
  12    6   28 1
  13    7    8 1
  14    7   15 1
  15    8    9 2
  16    8   29 1
  17    9   10 1
  18    9   12 1
  19   10   11 2
  20   12   13 2
  21   12   14 1
  22   14   30 1
  23   15   16 1
  24   15   31 1
  25   15   32 1
  26   16   17 ar
  27   16   21 ar
  28   17   18 ar
  29   17   33 1
  30   18   19 ar
  31   18   24 1
  32   19   20 ar
  33   19   22 1
  34   20   21 ar
  35   20   34 1
  36   21   35 1
  37   22   25 1
  38   25   36 1
  39   25   37 1
  40   25   38 1

#	End of record

