#	Name: ASD06610017
#	Creating user name:	WinNT
#	Creation time:	15. 06. 2019 21:07

#	Modifying user name:	WinNT
#	Modification time:	15. 06. 2019 21:07

#	Program:	/corina/corina34_cracker 3.40 0067  02.08.2006

@<TRIPOS>MOLECULE
ASD06610017
 334  335    0    0    0
SMALL
NO_CHARGES


@<TRIPOS>ATOM
   1 C1            -8.5124    -4.7598   -10.6283 C.2     
   2 O2            -8.6778    -5.8652   -11.0992 O.2     
   3 N3            -6.1811    -5.0719   -11.2256 N.am    
   4 C4            -7.1371    -4.1439   -10.6164 C.3     
   5 C5            -7.1567    -2.8370   -11.4117 C.3     
   6 C6            -5.7365    -2.2756   -11.5053 C.3     
   7 O7            -7.6578    -3.0869   -12.7264 O.3     
   8 C8           -11.9350    -3.5835   -10.1133 C.2     
   9 O9           -11.6014    -2.4352    -9.9109 O.2     
  10 N10           -9.5596    -4.0801   -10.1205 N.am    
  11 C11          -10.8977    -4.6764   -10.1375 C.3     
  12 C12          -11.0722    -5.5726    -8.9099 C.3     
  13 C13          -10.1113    -6.7595    -9.0040 C.3     
  14 C14          -10.7675    -4.7689    -7.6442 C.3     
  15 C15          -15.5799    -3.4616    -9.8620 C.2     
  16 O16          -15.6665    -4.6637    -9.7264 O.2     
  17 N17          -13.2334    -3.8822   -10.3164 N.am    
  18 C18          -14.2522    -2.8356   -10.2034 C.3     
  19 C19          -14.3672    -2.0899   -11.5344 C.3     
  20 C20          -13.0778    -1.3624   -11.8157 C.ar    
  21 C21          -12.0686    -1.9917   -12.5202 C.ar    
  22 C22          -10.8858    -1.3245   -12.7782 C.ar    
  23 C23          -10.7123    -0.0277   -12.3319 C.ar    
  24 C24          -11.7218     0.6020   -11.6282 C.ar    
  25 C25          -12.9063    -0.0638   -11.3740 C.ar    
  26 C26          -19.0763    -2.3950    -9.8442 C.2     
  27 O27          -18.8182    -1.3488   -10.4007 O.2     
  28 N28          -16.6709    -2.6857    -9.7073 N.am    
  29 C29          -17.9615    -3.2942    -9.3754 C.3     
  30 C30          -18.0617    -3.4833    -7.8605 C.3     
  31 C31          -17.0080    -4.4934    -7.4018 C.3     
  32 C32          -17.1082    -4.6825    -5.8868 C.3     
  33 N33          -16.0993    -5.6497    -5.4476 N.pl3   
  34 C34          -15.9985    -5.9817    -4.1173 C.2     
  35 N35          -16.8005    -5.4359    -3.2468 N.2     
  36 N36          -15.0516    -6.8893    -3.7052 N.pl3   
  37 C37          -22.6782    -2.1374    -9.2755 C.2     
  38 O38          -22.6549    -2.9695    -8.3935 O.2     
  39 N39          -20.3602    -2.7535    -9.6450 N.am    
  40 C40          -21.4439    -1.8793   -10.1008 C.3     
  41 C41          -21.7456    -2.1662   -11.5730 C.3     
  42 O42          -22.2516    -3.4961   -11.7052 O.3     
  43 C43          -26.2308    -1.3076    -9.5064 C.2     
  44 O44          -26.1119    -0.8660   -10.6296 O.2     
  45 N45          -23.8079    -1.4434    -9.5176 N.am    
  46 C46          -25.0077    -1.6943    -8.7153 C.3     
  47 C47          -24.9464    -0.8630    -7.4323 C.3     
  48 O48          -24.9958     0.5265    -7.7622 O.3     
  49 C49          -29.7703    -0.7417    -8.7889 C.2     
  50 O50          -29.5958    -0.8101    -7.5907 O.2     
  51 N51          -27.4567    -1.4526    -8.9655 N.am    
  52 C52          -28.6457    -1.0767    -9.7345 C.3     
  53 C53          -29.0636    -2.2443   -10.6306 C.3     
  54 C54          -27.9732    -2.5035   -11.6721 C.3     
  55 C55          -28.3912    -3.6711   -12.5682 C.3     
  56 N56          -27.3471    -3.9193   -13.5655 N.pl3   
  57 C57          -27.5021    -4.9282   -14.4866 C.2     
  58 N58          -26.5732    -5.1490   -15.3738 N.2     
  59 N59          -28.6370    -5.7041   -14.4717 N.pl3   
  60 C60          -33.3836    -0.2532    -9.0500 C.2     
  61 O61          -33.4090    -0.6390   -10.1995 O.2     
  62 N62          -30.9700    -0.3660    -9.2748 N.am    
  63 C63          -32.0632    -0.0402    -8.3556 C.3     
  64 C64          -31.9455     1.4220    -7.9210 C.3     
  65 C65          -30.6632     1.6107    -7.1079 C.3     
  66 C66          -30.5473     3.0510    -6.6798 C.2     
  67 O67          -31.4025     3.8450    -6.9929 O.2     
  68 O68          -29.4940     3.4517    -5.9507 O.3     
  69 C69          -36.8717     0.6444    -8.4246 C.2     
  70 O70          -36.5779     1.3637    -7.4934 O.2     
  71 N71          -34.5364    -0.0148    -8.3936 N.am    
  72 C72          -35.8200    -0.2218    -9.0686 C.3     
  73 C73          -36.2273    -1.6918    -8.9502 C.3     
  74 C74          -35.2249    -2.5617    -9.7112 C.3     
  75 C75          -35.6322    -4.0317    -9.5927 C.3     
  76 C76          -34.6298    -4.9017   -10.3538 C.3     
  77 N77          -35.0209    -6.3131   -10.2400 N.3     
  78 C78          -40.5208     0.8524    -8.4830 C.2     
  79 O79          -40.6256    -0.1832    -9.1055 O.2     
  80 N80          -38.1387     0.6196    -8.8834 N.am    
  81 C81          -39.1611     1.4616    -8.2573 C.3     
  82 C82          -39.1195     2.8600    -8.8767 C.3     
  83 C83          -37.7843     3.5272    -8.5408 C.3     
  84 C84          -37.7427     4.9255    -9.1602 C.3     
  85 N85          -36.4642     5.5644    -8.8385 N.pl3   
  86 C86          -36.1974     6.8348    -9.2913 C.2     
  87 N87          -37.0819     7.4708   -10.0068 N.2     
  88 N88          -34.9976     7.4343    -8.9894 N.pl3   
  89 C89          -43.9932     1.9443    -8.1457 C.2     
  90 O90          -43.6697     3.0941    -7.9356 O.2     
  91 N91          -41.6205     1.4584    -7.9930 N.am    
  92 C92          -42.9423     0.8661    -8.2124 C.3     
  93 C93          -43.2174    -0.1817    -7.1320 C.3     
  94 C94          -42.2264    -1.3381    -7.2789 C.3     
  95 C95          -42.5015    -2.3859    -6.1985 C.3     
  96 N96          -41.5525    -3.4931    -6.3392 N.pl3   
  97 C97          -41.6070    -4.5594    -5.4730 C.2     
  98 N98          -42.5029    -4.5852    -4.5266 N.2     
  99 N99          -40.7165    -5.5984    -5.6050 N.pl3   
 100 C100         -47.6359     2.0684    -7.8664 C.2     
 101 O101         -47.7169     0.8753    -7.6639 O.2     
 102 N102         -45.2924     1.6307    -8.3195 N.am    
 103 C103         -46.3139     2.6788    -8.2546 C.3     
 104 C104         -46.4442     3.3494    -9.6237 C.3     
 105 O105         -46.9349     2.4014   -10.5737 O.3     
 106 C106         -51.1360     3.1233    -7.8740 C.2     
 107 O107         -50.8869     4.1379    -8.4899 O.2     
 108 N108         -48.7283     2.8483    -7.7444 N.am    
 109 C109         -50.0135     2.2549    -7.3670 C.3     
 110 C110         -50.0987     2.1495    -5.8430 C.3     
 111 C111         -53.7753     4.7642    -7.3684 C.2     
 112 O112         -53.1192     4.9527    -6.3659 O.2     
 113 N113         -52.4166     2.7723    -7.6430 N.am    
 114 C114         -53.5077     3.5556    -8.2279 C.3     
 115 C115         -54.7699     2.6944    -8.3041 C.3     
 116 C116         -54.5398     1.5489    -9.2560 C.2     
 117 O117         -53.5147     1.4892    -9.8928 O.2     
 118 O118         -55.4736     0.5949    -9.3963 O.3     
 119 C119         -56.4749     7.2303    -7.1228 C.2     
 120 O120         -57.0193     6.9053    -8.1566 O.2     
 121 N121         -54.7437     5.6356    -7.7138 N.am    
 122 C122         -55.0784     6.7496    -6.8231 C.3     
 123 C123         -54.0870     7.8940    -7.0430 C.3     
 124 C124         -54.4633     9.0744    -6.1452 C.3     
 125 C125         -54.2480     8.6897    -4.6801 C.3     
 126 C126         -54.1315     8.3330    -8.5080 C.3     
 127 C127         -58.3479     9.7788    -7.3775 C.2     
 128 O128         -57.2556    10.2120    -7.6774 O.2     
 129 N129         -57.1188     8.0213    -6.2418 N.am    
 130 C130         -58.4599     8.5230    -6.5519 C.3     
 131 C131         -59.2021     8.8328    -5.2504 C.3     
 132 C132         -59.4222     7.5556    -4.4814 C.ar    
 133 C133         -58.4765     7.1264    -3.5691 C.ar    
 134 C134         -58.6784     5.9549    -2.8637 C.ar    
 135 C135         -59.8262     5.2127    -3.0703 C.ar    
 136 C136         -60.7723     5.6424    -3.9820 C.ar    
 137 C137         -60.5724     6.8162    -4.6842 C.ar    
 138 C138         -60.5926    12.4775    -8.3982 C.2     
 139 O139         -61.4762    12.0932    -7.6692 O.2     
 140 N140         -59.4618    10.4204    -7.7827 N.am    
 141 C141         -59.3530    11.6411    -8.5853 C.3     
 142 C142         -59.2068    11.2691   -10.0622 C.3     
 143 O143         -60.7150    13.6492    -9.0414 O.3     
 144 C144          -4.8752    -5.0045   -10.8995 C.2     
 145 O145          -4.4913    -4.1756   -10.1017 O.2     
 146 C146          12.9203   -10.7291   -12.2187 C.3     
 147 C147          11.9219    -9.7599   -11.5825 C.3     
 148 C148          10.5185   -10.0477   -12.1198 C.3     
 149 C149           9.5202    -9.0785   -11.4835 C.3     
 150 C150           8.1168    -9.3663   -12.0208 C.3     
 151 C151           7.1185    -8.3971   -11.3846 C.3     
 152 C152           5.7151    -8.6849   -11.9219 C.3     
 153 C153           4.7167    -7.7157   -11.2857 C.3     
 154 C154           3.3134    -8.0034   -11.8230 C.3     
 155 C155           2.3150    -7.0342   -11.1867 C.3     
 156 C156           0.9117    -7.3220   -11.7240 C.3     
 157 C157          -0.0867    -6.3528   -11.0878 C.3     
 158 C158          -1.4901    -6.6406   -11.6251 C.3     
 159 C159          -2.4884    -5.6714   -10.9889 C.3     
 160 C160          -3.8918    -5.9592   -11.5262 C.3     
 161 H161          -6.4881    -5.7349   -11.8637 H       
 162 H162          -6.8396    -3.9390    -9.5880 H       
 163 H163          -7.8003    -2.1152   -10.9087 H       
 164 H164          -5.0930    -2.9973   -12.0083 H       
 165 H165          -5.7505    -1.3445   -12.0719 H       
 166 H166          -5.3543    -2.0850   -10.5025 H       
 167 H167          -7.1330    -3.7214   -13.2333 H       
 168 H168          -9.4273    -3.1961    -9.7439 H       
 169 H169         -11.0185    -5.2720   -11.0424 H       
 170 H170         -12.0983    -5.9382    -8.8698 H       
 171 H171          -9.0852    -6.3939    -9.0441 H       
 172 H172         -10.2357    -7.3980    -8.1294 H       
 173 H173         -10.3284    -7.3321    -9.9058 H       
 174 H174         -11.5056    -3.9748    -7.5315 H       
 175 H175         -10.8074    -5.4279    -6.7768 H       
 176 H176          -9.7722    -4.3313    -7.7225 H       
 177 H177         -13.4934    -4.7902   -10.5375 H       
 178 H178         -13.9681    -2.1353    -9.4179 H       
 179 H179         -14.5639    -2.8033   -12.3347 H       
 180 H180         -15.1851    -1.3715   -11.4789 H       
 181 H181         -12.2041    -3.0049   -12.8689 H       
 182 H182         -10.0971    -1.8164   -13.3280 H       
 183 H183          -9.7879     0.4934   -12.5329 H       
 184 H184         -11.5861     1.6150   -11.2792 H       
 185 H185         -13.6964     0.4294   -10.8273 H       
 186 H186         -16.6016    -1.7242    -9.8157 H       
 187 H187         -18.0441    -4.2627    -9.8687 H       
 188 H188         -17.8907    -2.5287    -7.3630 H       
 189 H189         -19.0548    -3.8531    -7.6053 H       
 190 H190         -17.1791    -5.4481    -7.8992 H       
 191 H191         -16.0149    -4.1236    -7.6569 H       
 192 H192         -16.9372    -3.7278    -5.3894 H       
 193 H193         -18.1013    -5.0523    -5.6317 H       
 194 H194         -15.5024    -6.0558    -6.0954 H       
 195 H195         -16.7294    -5.6701    -2.3082 H       
 196 H196         -14.4548    -7.2954    -4.3530 H       
 197 H197         -14.9805    -7.1235    -2.7666 H       
 198 H198         -20.5667    -3.5902    -9.1999 H       
 199 H199         -21.1425    -0.8379    -9.9879 H       
 200 H200         -22.4890    -1.4568   -11.9365 H       
 201 H201         -20.8311    -2.0657   -12.1576 H       
 202 H202         -22.4651    -3.7471   -12.6143 H       
 203 H203         -23.8265    -0.7779   -10.2230 H       
 204 H204         -25.0596    -2.7527    -8.4603 H       
 205 H205         -25.7937    -1.1155    -6.7949 H       
 206 H206         -24.0175    -1.0782    -6.9041 H       
 207 H207         -24.9611     1.1144    -6.9951 H       
 208 H208         -27.5518    -1.8058    -8.0671 H       
 209 H209         -28.4192    -0.2076   -10.3521 H       
 210 H210         -29.2042    -3.1374   -10.0218 H       
 211 H211         -29.9976    -1.9983   -11.1359 H       
 212 H212         -27.8327    -1.6104   -12.2810 H       
 213 H213         -27.0393    -2.7495   -11.1668 H       
 214 H214         -28.5317    -4.5642   -11.9594 H       
 215 H215         -29.3251    -3.4251   -13.0735 H       
 216 H216         -26.5464    -3.3719   -13.5760 H       
 217 H217         -26.6826    -5.8608   -16.0237 H       
 218 H218         -29.3283    -5.5397   -13.8114 H       
 219 H219         -28.7464    -6.4159   -15.1216 H       
 220 H220         -31.1095    -0.3113   -10.2332 H       
 221 H221         -32.0054    -0.6856    -7.4791 H       
 222 H222         -31.9140     2.0618    -8.8029 H       
 223 H223         -32.8067     1.6895    -7.3087 H       
 224 H224         -30.6948     0.9709    -6.2260 H       
 225 H225         -29.8021     1.3432    -7.7203 H       
 226 H226         -29.4633     4.3851    -5.6998 H       
 227 H227         -34.5161     0.2938    -7.4742 H       
 228 H228         -35.7242     0.0450   -10.1211 H       
 229 H229         -36.2368    -1.9827    -7.8997 H       
 230 H230         -37.2222    -1.8285    -9.3740 H       
 231 H231         -35.2154    -2.2709   -10.7616 H       
 232 H232         -34.2300    -2.4251    -9.2874 H       
 233 H233         -35.6417    -4.3226    -8.5423 H       
 234 H234         -36.6271    -4.1684   -10.0165 H       
 235 H235         -34.6203    -4.6108   -11.4042 H       
 236 H236         -33.6349    -4.7650    -9.9300 H       
 237 H237         -34.3738    -6.9086   -10.7348 H       
 238 H238         -35.0997    -6.5896    -9.2729 H       
 239 H239         -38.3737     0.0442    -9.6281 H       
 240 H240         -38.9678     1.5325    -7.1869 H       
 241 H241         -39.2242     2.7813    -9.9588 H       
 242 H242         -39.9365     3.4596    -8.4753 H       
 243 H243         -37.6796     3.6059    -7.4587 H       
 244 H244         -36.9673     2.9275    -8.9422 H       
 245 H245         -37.8475     4.8468   -10.2423 H       
 246 H246         -38.5597     5.5252    -8.7588 H       
 247 H247         -35.8059     5.0910    -8.3060 H       
 248 H248         -36.8937     8.3672   -10.3262 H       
 249 H249         -34.3393     6.9609    -8.4569 H       
 250 H250         -34.8093     8.3306    -9.3089 H       
 251 H251         -41.5367     2.2866    -7.4951 H       
 252 H252         -42.9698     0.3922    -9.1935 H       
 253 H253         -43.1026     0.2724    -6.1477 H       
 254 H254         -44.2343    -0.5585    -7.2418 H       
 255 H255         -42.3413    -1.7922    -8.2631 H       
 256 H256         -41.2095    -0.9612    -7.1690 H       
 257 H257         -42.3866    -1.9318    -5.2143 H       
 258 H258         -43.5184    -2.7627    -6.3083 H       
 259 H259         -40.8858    -3.4739    -7.0434 H       
 260 H260         -42.5413    -5.3374    -3.9155 H       
 261 H261         -40.0498    -5.5793    -6.3093 H       
 262 H262         -40.7549    -6.3507    -4.9939 H       
 263 H263         -45.5510     0.7110    -8.4875 H       
 264 H264         -46.0249     3.4223    -7.5119 H       
 265 H265         -47.1388     4.1864    -9.5536 H       
 266 H266         -45.4680     3.7131    -9.9444 H       
 267 H267         -47.0425     2.7583   -11.4659 H       
 268 H268         -48.6636     3.8024    -7.9064 H       
 269 H269         -50.0972     1.2604    -7.8052 H       
 270 H270         -50.0150     3.1440    -5.4048 H       
 271 H271         -51.0549     1.7080    -5.5622 H       
 272 H272         -49.2869     1.5214    -5.4763 H       
 273 H273         -52.6158     2.0012    -7.0894 H       
 274 H274         -53.2266     3.8779    -9.2306 H       
 275 H275         -55.0029     2.3028    -7.3139 H       
 276 H276         -55.6027     3.3009    -8.6601 H       
 277 H277         -55.2810    -0.1197   -10.0186 H       
 278 H278         -55.2191     5.5252    -8.5521 H       
 279 H279         -55.0236     6.4155    -5.7870 H       
 280 H280         -53.0808     7.5556    -6.7955 H       
 281 H281         -53.8374     9.9321    -6.3914 H       
 282 H282         -55.5106     9.3316    -6.3032 H       
 283 H283         -54.8145     7.7862    -4.4546 H       
 284 H284         -53.1879     8.5072    -4.5043 H       
 285 H285         -54.5883     9.5017    -4.0375 H       
 286 H286         -55.1133     8.7496    -8.7327 H       
 287 H287         -53.3668     9.0895    -8.6840 H       
 288 H288         -53.9461     7.4725    -9.1509 H       
 289 H289         -56.6944     8.2585    -5.4025 H       
 290 H290         -59.0098     7.7673    -7.1128 H       
 291 H291         -58.6088     9.5215    -4.6489 H       
 292 H292         -60.1650     9.2887    -5.4809 H       
 293 H293         -57.5797     7.7062    -3.4077 H       
 294 H294         -57.9392     5.6192    -2.1515 H       
 295 H295         -59.9836     4.2970    -2.5197 H       
 296 H296         -61.6689     5.0624    -4.1436 H       
 297 H297         -61.3134     7.1539    -5.3937 H       
 298 H298         -60.3355    10.0739    -7.5429 H       
 299 H299         -58.4796    12.2095    -8.2656 H       
 300 H300         -59.1259    12.1774   -10.6593 H       
 301 H301         -58.3102    10.6642   -10.1975 H       
 302 H302         -60.0803    10.7008   -10.3819 H       
 303 H303         -61.5280    14.1504    -8.8899 H       
 304 H304          13.9200   -10.5241   -11.8359 H       
 305 H305          12.6399   -11.7532   -11.9724 H       
 306 H306          12.9122   -10.6005   -13.3011 H       
 307 H307          11.9300    -9.8886   -10.5001 H       
 308 H308          12.2023    -8.7358   -11.8288 H       
 309 H309          10.5105    -9.9191   -13.2021 H       
 310 H310          10.2381   -11.0718   -11.8735 H       
 311 H311           9.5283    -9.2071   -10.4012 H       
 312 H312           9.8006    -8.0544   -11.7298 H       
 313 H313           8.1087    -9.2377   -13.1032 H       
 314 H314           7.8364   -10.3904   -11.7745 H       
 315 H315           7.1265    -8.5257   -10.3022 H       
 316 H316           7.3989    -7.3730   -11.6309 H       
 317 H317           5.7070    -8.5562   -13.0043 H       
 318 H318           5.4347    -9.7090   -11.6756 H       
 319 H319           4.7248    -7.8443   -10.2033 H       
 320 H320           4.9971    -6.6916   -11.5320 H       
 321 H321           3.3053    -7.8748   -12.9053 H       
 322 H322           3.0330    -9.0275   -11.5767 H       
 323 H323           2.3231    -7.1629   -10.1044 H       
 324 H324           2.5954    -6.0101   -11.4330 H       
 325 H325           0.9036    -7.1934   -12.8064 H       
 326 H326           0.6312    -8.3461   -11.4777 H       
 327 H327          -0.0786    -6.4814   -10.0054 H       
 328 H328           0.1937    -5.3287   -11.3341 H       
 329 H329          -1.4982    -6.5120   -12.7074 H       
 330 H330          -1.7705    -7.6647   -11.3788 H       
 331 H331          -2.4803    -5.8000    -9.9065 H       
 332 H332          -2.2080    -4.6473   -11.2351 H       
 333 H333          -4.1722    -6.9833   -11.2799 H       
 334 H334          -3.8999    -5.8305   -12.6085 H       
@<TRIPOS>BOND
   1    1    2 2
   2    1    4 1
   3    1   10 am
   4    3  144 am
   5    3    4 1
   6    3  161 1
   7    4    5 1
   8    4  162 1
   9    5    6 1
  10    5    7 1
  11    5  163 1
  12    6  164 1
  13    6  165 1
  14    6  166 1
  15    7  167 1
  16    8    9 2
  17    8   11 1
  18    8   17 am
  19   10   11 1
  20   10  168 1
  21   11   12 1
  22   11  169 1
  23   12   13 1
  24   12   14 1
  25   12  170 1
  26   13  171 1
  27   13  172 1
  28   13  173 1
  29   14  174 1
  30   14  175 1
  31   14  176 1
  32   15   16 2
  33   15   18 1
  34   15   28 am
  35   17   18 1
  36   17  177 1
  37   18   19 1
  38   18  178 1
  39   19   20 1
  40   19  179 1
  41   19  180 1
  42   20   21 ar
  43   20   25 ar
  44   21   22 ar
  45   21  181 1
  46   22   23 ar
  47   22  182 1
  48   23   24 ar
  49   23  183 1
  50   24   25 ar
  51   24  184 1
  52   25  185 1
  53   26   27 2
  54   26   29 1
  55   26   39 am
  56   28   29 1
  57   28  186 1
  58   29   30 1
  59   29  187 1
  60   30   31 1
  61   30  188 1
  62   30  189 1
  63   31   32 1
  64   31  190 1
  65   31  191 1
  66   32   33 1
  67   32  192 1
  68   32  193 1
  69   33   34 1
  70   33  194 1
  71   34   35 2
  72   34   36 1
  73   35  195 1
  74   36  196 1
  75   36  197 1
  76   37   38 2
  77   37   40 1
  78   37   45 am
  79   39   40 1
  80   39  198 1
  81   40   41 1
  82   40  199 1
  83   41   42 1
  84   41  200 1
  85   41  201 1
  86   42  202 1
  87   43   44 2
  88   43   46 1
  89   43   51 am
  90   45   46 1
  91   45  203 1
  92   46   47 1
  93   46  204 1
  94   47   48 1
  95   47  205 1
  96   47  206 1
  97   48  207 1
  98   49   50 2
  99   49   52 1
 100   49   62 am
 101   51   52 1
 102   51  208 1
 103   52   53 1
 104   52  209 1
 105   53   54 1
 106   53  210 1
 107   53  211 1
 108   54   55 1
 109   54  212 1
 110   54  213 1
 111   55   56 1
 112   55  214 1
 113   55  215 1
 114   56   57 1
 115   56  216 1
 116   57   58 2
 117   57   59 1
 118   58  217 1
 119   59  218 1
 120   59  219 1
 121   60   61 2
 122   60   63 1
 123   60   71 am
 124   62   63 1
 125   62  220 1
 126   63   64 1
 127   63  221 1
 128   64   65 1
 129   64  222 1
 130   64  223 1
 131   65   66 1
 132   65  224 1
 133   65  225 1
 134   66   67 2
 135   66   68 1
 136   68  226 1
 137   69   70 2
 138   69   72 1
 139   69   80 am
 140   71   72 1
 141   71  227 1
 142   72   73 1
 143   72  228 1
 144   73   74 1
 145   73  229 1
 146   73  230 1
 147   74   75 1
 148   74  231 1
 149   74  232 1
 150   75   76 1
 151   75  233 1
 152   75  234 1
 153   76   77 1
 154   76  235 1
 155   76  236 1
 156   77  237 1
 157   77  238 1
 158   78   79 2
 159   78   81 1
 160   78   91 am
 161   80   81 1
 162   80  239 1
 163   81   82 1
 164   81  240 1
 165   82   83 1
 166   82  241 1
 167   82  242 1
 168   83   84 1
 169   83  243 1
 170   83  244 1
 171   84   85 1
 172   84  245 1
 173   84  246 1
 174   85   86 1
 175   85  247 1
 176   86   87 2
 177   86   88 1
 178   87  248 1
 179   88  249 1
 180   88  250 1
 181   89   90 2
 182   89   92 1
 183   89  102 am
 184   91   92 1
 185   91  251 1
 186   92   93 1
 187   92  252 1
 188   93   94 1
 189   93  253 1
 190   93  254 1
 191   94   95 1
 192   94  255 1
 193   94  256 1
 194   95   96 1
 195   95  257 1
 196   95  258 1
 197   96   97 1
 198   96  259 1
 199   97   98 2
 200   97   99 1
 201   98  260 1
 202   99  261 1
 203   99  262 1
 204  100  101 2
 205  100  103 1
 206  100  108 am
 207  102  103 1
 208  102  263 1
 209  103  104 1
 210  103  264 1
 211  104  105 1
 212  104  265 1
 213  104  266 1
 214  105  267 1
 215  106  107 2
 216  106  109 1
 217  106  113 am
 218  108  109 1
 219  108  268 1
 220  109  110 1
 221  109  269 1
 222  110  270 1
 223  110  271 1
 224  110  272 1
 225  111  112 2
 226  111  114 1
 227  111  121 am
 228  113  114 1
 229  113  273 1
 230  114  115 1
 231  114  274 1
 232  115  116 1
 233  115  275 1
 234  115  276 1
 235  116  117 2
 236  116  118 1
 237  118  277 1
 238  119  120 2
 239  119  122 1
 240  119  129 am
 241  121  122 1
 242  121  278 1
 243  122  123 1
 244  122  279 1
 245  123  124 1
 246  123  126 1
 247  123  280 1
 248  124  125 1
 249  124  281 1
 250  124  282 1
 251  125  283 1
 252  125  284 1
 253  125  285 1
 254  126  286 1
 255  126  287 1
 256  126  288 1
 257  127  128 2
 258  127  130 1
 259  127  140 am
 260  129  130 1
 261  129  289 1
 262  130  131 1
 263  130  290 1
 264  131  132 1
 265  131  291 1
 266  131  292 1
 267  132  133 ar
 268  132  137 ar
 269  133  134 ar
 270  133  293 1
 271  134  135 ar
 272  134  294 1
 273  135  136 ar
 274  135  295 1
 275  136  137 ar
 276  136  296 1
 277  137  297 1
 278  138  139 2
 279  138  141 1
 280  138  143 1
 281  140  141 1
 282  140  298 1
 283  141  142 1
 284  141  299 1
 285  142  300 1
 286  142  301 1
 287  142  302 1
 288  143  303 1
 289  144  145 2
 290  144  160 1
 291  146  147 1
 292  146  304 1
 293  146  305 1
 294  146  306 1
 295  147  148 1
 296  147  307 1
 297  147  308 1
 298  148  149 1
 299  148  309 1
 300  148  310 1
 301  149  150 1
 302  149  311 1
 303  149  312 1
 304  150  151 1
 305  150  313 1
 306  150  314 1
 307  151  152 1
 308  151  315 1
 309  151  316 1
 310  152  153 1
 311  152  317 1
 312  152  318 1
 313  153  154 1
 314  153  319 1
 315  153  320 1
 316  154  155 1
 317  154  321 1
 318  154  322 1
 319  155  156 1
 320  155  323 1
 321  155  324 1
 322  156  157 1
 323  156  325 1
 324  156  326 1
 325  157  158 1
 326  157  327 1
 327  157  328 1
 328  158  159 1
 329  158  329 1
 330  158  330 1
 331  159  160 1
 332  159  331 1
 333  159  332 1
 334  160  333 1
 335  160  334 1

#	End of record

