#	Name: ASD03930066
#	Creating user name:	WinNT
#	Creation time:	15. 06. 2019 20:47

#	Modifying user name:	WinNT
#	Modification time:	15. 06. 2019 20:47

#	Program:	/corina/corina34_cracker 3.40 0067  02.08.2006

@<TRIPOS>MOLECULE
ASD03930066
  25   27    0    0    0
SMALL
NO_CHARGES


@<TRIPOS>ATOM
   1 C1            -0.0166     1.3716     0.0096 C.ar    
   2 C2             0.0021    -0.0041     0.0020 C.ar    
   3 C3             1.2031    -0.7099    -0.0018 C.ar    
   4 C4             2.4049    -0.0347     0.0009 C.ar    
   5 C5             2.3822     1.3767    -0.0149 C.ar    
   6 C6             1.1895     2.0814     0.0019 C.ar    
   7 C7             3.7107    -0.7756     0.0509 C.3     
   8 N8             4.8004    -0.0640    -0.6229 N.am    
   9 S9             5.1684     1.4941    -0.1378 S.o2    
  10 C10            3.5595     2.2585    -0.0693 C.2     
  11 S11            1.5309     3.8062     0.0059 S.3     
  12 C12            3.2643     3.5366    -0.0555 C.2     
  13 O13            5.6519     1.4147     1.1961 O.2     
  14 O14            5.8794     2.1083    -1.2038 O.2     
  15 C15            5.5546    -0.7061    -1.7023 C.3     
  16 O16            1.1899    -2.0698    -0.0077 O.3     
  17 H17           -0.9577     1.9013     0.0169 H       
  18 H18           -0.9317    -0.5468    -0.0007 H       
  19 H19            3.9858    -0.9313     1.0941 H       
  20 H20            3.5805    -1.7481    -0.4238 H       
  21 H21            3.9993     4.3277    -0.0784 H       
  22 H22            5.0740    -0.4940    -2.6574 H       
  23 H23            6.5733    -0.3186    -1.7142 H       
  24 H24            5.5776    -1.7835    -1.5385 H       
  25 H25            1.1856    -2.4592    -0.8928 H       
@<TRIPOS>BOND
   1    1    2 ar
   2    1    6 ar
   3    1   17 1
   4    2    3 ar
   5    2   18 1
   6    3    4 ar
   7    3   16 1
   8    4    5 ar
   9    4    7 1
  10    5    6 ar
  11    5   10 1
  12    6   11 1
  13    7    8 1
  14    7   19 1
  15    7   20 1
  16    8    9 am
  17    8   15 1
  18    9   10 1
  19    9   13 2
  20    9   14 2
  21   10   12 2
  22   11   12 1
  23   12   21 1
  24   15   22 1
  25   15   23 1
  26   15   24 1
  27   16   25 1

#	End of record

