#	Name: ASD01150329
#	Creating user name:	WinNT
#	Creation time:	15. 06. 2019 19:04

#	Modifying user name:	WinNT
#	Modification time:	15. 06. 2019 19:04

#	Program:	/corina/corina34_cracker 3.40 0067  02.08.2006

@<TRIPOS>MOLECULE
ASD01150329
  62   64    0    0    0
SMALL
NO_CHARGES


@<TRIPOS>ATOM
   1 N1            -0.0169     1.3926     0.0097 N.pl3   
   2 C2             0.0021    -0.0041     0.0020 C.2     
   3 C3            -1.3281    -0.4052     0.0131 C.2     
   4 N4            -2.0858     0.6950     0.0265 N.2     
   5 C5            -1.3234     1.7682     0.0302 C.2     
   6 C6             1.1390    -0.8369    -0.0142 C.2     
   7 C7             1.0965     2.2428     0.0036 C.ar    
   8 C8             1.3308     3.0745    -1.0833 C.ar    
   9 C9             2.4293     3.9116    -1.0863 C.ar    
  10 C10            3.2954     3.9221    -0.0084 C.ar    
  11 C11            3.0650     3.0946     1.0753 C.ar    
  12 C12            1.9648     2.2597     1.0870 C.ar    
  13 N13           -1.7777     3.0668     0.0437 N.3     
  14 C14           -3.2460     3.1108     0.0531 C.3     
  15 C15           -1.2215     3.8073     1.1840 C.3     
  16 O16            1.0070    -2.0475    -0.0193 O.2     
  17 O17            2.3748    -0.2923    -0.0240 O.3     
  18 C18            3.4818    -1.1959    -0.0402 C.3     
  19 C19            3.4079    -2.0704    -1.2934 C.3     
  20 C20            4.7889    -0.4008    -0.0494 C.3     
  21 C21            3.4337    -2.0838     1.2049 C.3     
  22 N22           -1.7881    -1.7165     0.0106 N.am    
  23 C23           -3.1125    -1.9660     0.0224 C.2     
  24 C24           -3.6016    -3.3601     0.0198 C.ar    
  25 O25           -3.9047    -1.0440     0.0352 O.2     
  26 C26           -4.9730    -3.6217     0.0320 C.ar    
  27 C27           -5.4234    -4.9252     0.0290 C.ar    
  28 C28           -4.5185    -5.9735     0.0144 C.ar    
  29 C29           -3.1565    -5.7202     0.0022 C.ar    
  30 C30           -2.6941    -4.4214    -0.0008 C.ar    
  31 Cl31          -5.0932    -7.6116     0.0118 Cl      
  32 S32           -6.1258    -2.2894     0.0518 S.o2    
  33 C33           -5.8446    -1.4711     1.6461 C.3     
  34 O34           -5.7116    -1.4516    -1.0186 O.2     
  35 O35           -7.3966    -2.9252     0.0350 O.2     
  36 H36            0.6549     3.0666    -1.9256 H       
  37 H37            2.6123     4.5585    -1.9316 H       
  38 H38            4.1537     4.5775    -0.0131 H       
  39 H39            3.7437     3.1045     1.9154 H       
  40 H40            1.7852     1.6140     1.9339 H       
  41 H41           -3.6190     2.6008     0.9413 H       
  42 H42           -3.5783     4.1489     0.0637 H       
  43 H43           -3.6301     2.6154    -0.8386 H       
  44 H44           -0.1337     3.8183     1.1144 H       
  45 H45           -1.5967     4.8306     1.1706 H       
  46 H46           -1.5212     3.3225     2.1131 H       
  47 H47            3.4422    -1.4378    -2.1804 H       
  48 H48            4.2523    -2.7596    -1.3058 H       
  49 H49            2.4767    -2.6368    -1.2869 H       
  50 H50            4.8415     0.2222     0.8435 H       
  51 H51            5.6333    -1.0900    -0.0618 H       
  52 H52            4.8232     0.2318    -0.9364 H       
  53 H53            2.5024    -2.6502     1.2114 H       
  54 H54            4.2780    -2.7730     1.1925 H       
  55 H55            3.4863    -1.4607     2.0977 H       
  56 H56           -1.1561    -2.4522     0.0004 H       
  57 H57           -6.4840    -5.1289     0.0384 H       
  58 H58           -2.4556    -6.5418    -0.0092 H       
  59 H59           -1.6321    -4.2251    -0.0106 H       
  60 H60           -4.8144    -1.1186     1.6969 H       
  61 H61           -6.5236    -0.6242     1.7447 H       
  62 H62           -6.0267    -2.1788     2.4549 H       
@<TRIPOS>BOND
   1    1    2 1
   2    1    7 1
   3    1    5 1
   4    2    3 2
   5    2    6 1
   6    3    4 1
   7    3   22 1
   8    4    5 2
   9    5   13 1
  10    6   16 2
  11    6   17 1
  12    7    8 ar
  13    7   12 ar
  14    8    9 ar
  15    8   36 1
  16    9   10 ar
  17    9   37 1
  18   10   11 ar
  19   10   38 1
  20   11   12 ar
  21   11   39 1
  22   12   40 1
  23   13   14 1
  24   13   15 1
  25   14   41 1
  26   14   42 1
  27   14   43 1
  28   15   44 1
  29   15   45 1
  30   15   46 1
  31   17   18 1
  32   18   19 1
  33   18   20 1
  34   18   21 1
  35   19   47 1
  36   19   48 1
  37   19   49 1
  38   20   50 1
  39   20   51 1
  40   20   52 1
  41   21   53 1
  42   21   54 1
  43   21   55 1
  44   22   23 am
  45   22   56 1
  46   23   24 1
  47   23   25 2
  48   24   26 ar
  49   24   30 ar
  50   26   27 ar
  51   26   32 1
  52   27   28 ar
  53   27   57 1
  54   28   29 ar
  55   28   31 1
  56   29   30 ar
  57   29   58 1
  58   30   59 1
  59   32   33 1
  60   32   34 2
  61   32   35 2
  62   33   60 1
  63   33   61 1
  64   33   62 1

#	End of record

