#	Name: ASD05380133
#	Creating user name:	WinNT
#	Creation time:	15. 06. 2019 20:59

#	Modifying user name:	WinNT
#	Modification time:	15. 06. 2019 20:59

#	Program:	/corina/corina34_cracker 3.40 0067  02.08.2006

@<TRIPOS>MOLECULE
ASD05380133
  51   55    0    0    0
SMALL
NO_CHARGES


@<TRIPOS>ATOM
   1 C1            -0.1402     1.4434    -0.4443 C.ar    
   2 C2             0.0694     0.1193     0.0026 C.ar    
   3 C3             0.9314     2.1969    -0.9221 C.ar    
   4 C4             2.1930     1.6391    -0.9542 C.ar    
   5 C5             2.4007     0.3388    -0.5158 C.ar    
   6 C6             1.3553    -0.4217    -0.0403 C.ar    
   7 N7            -0.9879    -0.5948     0.4638 N.2     
   8 C8            -2.1838    -0.0910     0.5038 C.2     
   9 N9            -2.4768     1.1730     0.0942 N.am    
  10 C10           -1.5043     1.9858    -0.3807 C.2     
  11 C11           -3.7953     1.6391     0.1702 C.ar    
  12 C12           -4.6638     1.4444    -0.8953 C.ar    
  13 C13           -6.4033     2.5602     0.3207 C.ar    
  14 C14           -3.3046    -0.9501     1.0303 C.3     
  15 N15           -3.0857    -2.3407     0.6248 N.pl3   
  16 C16           -4.1592    -3.2070     0.5170 C.ar    
  17 N17           -5.3941    -2.7928     0.7778 N.ar    
  18 O18           -1.7520     3.1190    -0.7502 O.2     
  19 C19           -3.9671    -4.5426     0.1236 C.ar    
  20 C20           -5.0926    -5.3779     0.0303 C.ar    
  21 N21           -6.2926    -4.8819     0.3148 N.ar    
  22 C22           -6.4294    -3.6165     0.6767 C.ar    
  23 N23           -2.8869    -5.2883    -0.2159 N.2     
  24 C24           -3.2690    -6.4979    -0.5043 C.2     
  25 N25           -4.6224    -6.6038    -0.3674 N.pl3   
  26 C26           -5.9660     1.9052    -0.8182 C.ar    
  27 C27           -5.5401     2.7508     1.3866 C.ar    
  28 C28           -4.2372     2.2915     1.3133 C.ar    
  29 C29           -3.3393    -0.8636     2.5574 C.3     
  30 Cl30           0.6801     3.8239    -1.4729 Cl      
  31 F31           -6.8114     1.7164    -1.8550 F       
  32 F32           -5.9690     3.3905     2.4965 F       
  33 N33           -7.6970    -3.1353     0.9602 N.pl3   
  34 C34           -4.5513    -1.6344     3.0844 C.3     
  35 H35            3.0257     2.2190    -1.3238 H       
  36 H36            3.3948    -0.0822    -0.5479 H       
  37 H37            1.5300    -1.4324     0.2980 H       
  38 H38           -4.3230     0.9339    -1.7839 H       
  39 H39           -7.4202     2.9194     0.3794 H       
  40 H40           -4.2532    -0.5984     0.6247 H       
  41 H41           -2.1883    -2.6542     0.4318 H       
  42 H42           -2.6121    -7.2997    -0.8076 H       
  43 H43           -5.1545    -7.4000    -0.5222 H       
  44 H44           -3.5643     2.4399     2.1450 H       
  45 H45           -2.4269    -1.2972     2.9668 H       
  46 H46           -3.4130     0.1808     2.8606 H       
  47 H47           -7.8162    -2.2105     1.2274 H       
  48 H48           -8.4655    -3.7232     0.8915 H       
  49 H49           -4.5761    -1.5728     4.1724 H       
  50 H50           -5.4638    -1.2008     2.6751 H       
  51 H51           -4.4776    -2.6788     2.7813 H       
@<TRIPOS>BOND
   1    1    2 ar
   2    1    3 ar
   3    1   10 1
   4    2    7 1
   5    2    6 ar
   6    3    4 ar
   7    3   30 1
   8    4    5 ar
   9    4   35 1
  10    5    6 ar
  11    5   36 1
  12    6   37 1
  13    7    8 2
  14    8    9 1
  15    8   14 1
  16    9   10 am
  17    9   11 1
  18   10   18 2
  19   11   12 ar
  20   11   28 ar
  21   12   26 ar
  22   12   38 1
  23   13   26 ar
  24   13   27 ar
  25   13   39 1
  26   14   15 1
  27   14   29 1
  28   14   40 1
  29   15   16 1
  30   15   41 1
  31   16   17 ar
  32   16   19 ar
  33   17   22 ar
  34   19   20 ar
  35   19   23 1
  36   20   21 ar
  37   20   25 1
  38   21   22 ar
  39   22   33 1
  40   23   24 2
  41   24   25 1
  42   24   42 1
  43   25   43 1
  44   26   31 1
  45   27   32 1
  46   27   28 ar
  47   28   44 1
  48   29   34 1
  49   29   45 1
  50   29   46 1
  51   33   47 1
  52   33   48 1
  53   34   49 1
  54   34   50 1
  55   34   51 1

#	End of record

