#	Name: ASD00431138
#	Creating user name:	WinNT
#	Creation time:	15. 06. 2019 18:35

#	Modifying user name:	WinNT
#	Modification time:	15. 06. 2019 18:35

#	Program:	/corina/corina34_cracker 3.40 0067  02.08.2006

@<TRIPOS>MOLECULE
ASD00431138
  54   56    0    0    0
SMALL
NO_CHARGES


@<TRIPOS>ATOM
   1 C1             0.1421     1.5765     0.1634 C.2     
   2 C2             0.2672     0.0795     0.2832 C.3     
   3 C3             1.7428    -0.3169     0.2049 C.3     
   4 O4             1.1355     2.2592     0.0287 O.2     
   5 N5            -1.0740     2.1563     0.2004 N.am    
   6 C6            -0.3126    -0.3750     1.6241 C.3     
   7 C7            -1.1956     3.6116     0.0840 C.3     
   8 C8            -1.2149     4.0051    -1.3944 C.3     
   9 O9            -3.6635     3.4448     0.6857 O.3     
  10 N10           -4.5104     4.0394     1.3110 N.2     
  11 C11           -4.0211     5.1238     1.8665 C.2     
  12 C12           -2.6447     5.1681     1.4991 C.2     
  13 C13           -2.4746     4.0630     0.7407 C.2     
  14 S14           -4.0675     7.5496     3.4353 S.3     
  15 C15           -5.5874     7.9329     4.1174 C.2     
  16 N16           -6.4658     7.0343     3.7938 N.2     
  17 C17           -6.0549     6.0395     3.0383 C.2     
  18 C18           -4.7494     6.0999     2.7021 C.2     
  19 O19           -5.8387     9.0189     4.8864 O.3     
  20 C20           -7.1297     9.2733     5.2295 C.ar    
  21 C21           -7.4198    10.2714     6.1503 C.ar    
  22 C22           -8.7319    10.5297     6.4982 C.ar    
  23 C23           -9.7588     9.7918     5.9274 C.ar    
  24 C24           -9.4686     8.7948     5.0082 C.ar    
  25 C25           -8.1572     8.5399     4.6557 C.ar    
  26 O26          -11.0499    10.0459     6.2697 O.3     
  27 C27          -11.2689    10.9893     7.3205 C.3     
  28 C28          -11.4756    12.3817     6.7209 C.3     
  29 C29          -12.5123    10.5870     8.1161 C.3     
  30 Cl30          -6.1344    11.1940     6.8646 Cl      
  31 H31           -0.2807    -0.3970    -0.5298 H       
  32 H32            2.2907     0.1596     1.0179 H       
  33 H33            1.8333    -1.3997     0.2915 H       
  34 H34            2.1559     0.0069    -0.7504 H       
  35 H35           -1.8688     1.6100     0.3041 H       
  36 H36           -0.2222    -1.4578     1.7107 H       
  37 H37            0.2352     0.1015     2.4371 H       
  38 H38           -1.3639    -0.0926     1.6799 H       
  39 H39           -0.3471     4.0875     0.5756 H       
  40 H40           -1.3053     5.0879    -1.4811 H       
  41 H41           -0.2897     3.6786    -1.8694 H       
  42 H42           -2.0633     3.5291    -1.8861 H       
  43 H43           -1.9087     5.9124     1.7650 H       
  44 H44           -6.7069     5.2417     2.7147 H       
  45 H45           -8.9580    11.3056     7.2145 H       
  46 H46          -10.2682     8.2201     4.5647 H       
  47 H47           -7.9320     7.7666     3.9362 H       
  48 H48          -10.4029    11.0036     7.9823 H       
  49 H49          -11.6426    13.1013     7.5224 H       
  50 H50          -10.5898    12.6683     6.1540 H       
  51 H51          -12.3416    12.3674     6.0591 H       
  52 H52          -12.3651     9.5950     8.5433 H       
  53 H53          -12.6793    11.3066     8.9176 H       
  54 H54          -13.3783    10.5727     7.4543 H       
@<TRIPOS>BOND
   1    1    2 1
   2    1    4 2
   3    1    5 am
   4    2    3 1
   5    2    6 1
   6    2   31 1
   7    3   32 1
   8    3   33 1
   9    3   34 1
  10    5    7 1
  11    5   35 1
  12    6   36 1
  13    6   37 1
  14    6   38 1
  15    7    8 1
  16    7   13 1
  17    7   39 1
  18    8   40 1
  19    8   41 1
  20    8   42 1
  21    9   10 1
  22    9   13 1
  23   10   11 2
  24   11   12 1
  25   11   18 1
  26   12   13 2
  27   12   43 1
  28   14   15 1
  29   14   18 1
  30   15   16 2
  31   15   19 1
  32   16   17 1
  33   17   18 2
  34   17   44 1
  35   19   20 1
  36   20   21 ar
  37   20   25 ar
  38   21   22 ar
  39   21   30 1
  40   22   23 ar
  41   22   45 1
  42   23   24 ar
  43   23   26 1
  44   24   25 ar
  45   24   46 1
  46   25   47 1
  47   26   27 1
  48   27   28 1
  49   27   29 1
  50   27   48 1
  51   28   49 1
  52   28   50 1
  53   28   51 1
  54   29   52 1
  55   29   53 1
  56   29   54 1

#	End of record

