#	Name: ASD01120164
#	Creating user name:	WinNT
#	Creation time:	15. 06. 2019 18:59

#	Modifying user name:	WinNT
#	Modification time:	15. 06. 2019 18:59

#	Program:	/corina/corina34_cracker 3.40 0067  02.08.2006

@<TRIPOS>MOLECULE
ASD01120164
  58   61    0    0    0
SMALL
NO_CHARGES


@<TRIPOS>ATOM
   1 C1            -0.0326     1.3700    -0.0271 C.ar    
   2 C2            -0.0196    -0.0281     0.0741 C.ar    
   3 C3            -1.1949    -0.7353     0.1993 C.ar    
   4 C4            -2.4143    -0.0477     0.2254 C.ar    
   5 C5            -2.4195     1.3656     0.1226 C.ar    
   6 C6            -1.2106     2.0611     0.0019 C.ar    
   7 N7            -3.5870    -0.6898     0.3451 N.ar    
   8 C8            -4.7137    -0.0184     0.3662 C.ar    
   9 N9            -4.7673     1.3008     0.2733 N.ar    
  10 C10           -3.6674     2.0325     0.1516 C.ar    
  11 C11           -5.1759     5.2824     0.5540 C.ar    
  12 C12           -4.9821     4.0391    -0.0342 C.ar    
  13 C13           -6.0269     3.4245    -0.7126 C.ar    
  14 C14           -7.2550     4.0515    -0.8002 C.ar    
  15 C15           -7.4441     5.2905    -0.2133 C.ar    
  16 C16           -6.4057     5.9045     0.4621 C.ar    
  17 N17           -3.7382     3.4079     0.0561 N.pl3   
  18 Br18          -8.6784     3.2163    -1.7234 Br      
  19 O19            1.1649    -0.6926     0.0481 O.3     
  20 O20            1.1408     2.0462    -0.1498 O.3     
  21 C21            1.1124    -2.1166     0.1553 C.3     
  22 C22            1.0620     3.4696    -0.2488 C.3     
  23 C23            2.4714     4.0505    -0.3794 C.3     
  24 C24            2.5323    -2.6844     0.1074 C.3     
  25 C25           -6.0050    -0.7834     0.5018 C.3     
  26 N26           -6.3391    -0.9319     1.9246 N.3     
  27 C27           -7.7006    -1.4600     2.0937 C.3     
  28 C28           -7.9850    -1.6548     3.5854 C.3     
  29 O29           -7.7977    -0.4119     4.2676 O.3     
  30 C30           -6.4823     0.1309     4.1246 C.3     
  31 C31           -6.1827     0.3438     2.6384 C.3     
  32 H32           -1.1760    -1.8123     0.2763 H       
  33 H33           -1.2098     3.1382    -0.0768 H       
  34 H34           -4.3667     5.7607     1.0859 H       
  35 H35           -5.8793     2.4579    -1.1713 H       
  36 H36           -8.4048     5.7790    -0.2833 H       
  37 H37           -6.5565     6.8715     0.9187 H       
  38 H38           -2.9248     3.9363     0.0516 H       
  39 H39            0.6423    -2.3928     1.0992 H       
  40 H40            0.5308    -2.5221    -0.6726 H       
  41 H41            0.4745     3.7409    -1.1259 H       
  42 H42            0.5854     3.8702     0.6459 H       
  43 H43            3.0589     3.7793     0.4977 H       
  44 H44            2.9480     3.6500    -1.2740 H       
  45 H45            2.4113     5.1363    -0.4549 H       
  46 H46            2.4922    -3.7706     0.1892 H       
  47 H47            3.0024    -2.4083    -0.8365 H       
  48 H48            3.1139    -2.2789     0.9353 H       
  49 H49           -6.8035    -0.2409    -0.0042 H       
  50 H50           -5.8925    -1.7691     0.0503 H       
  51 H51           -8.4190    -0.7550     1.6753 H       
  52 H52           -7.7864    -2.4168     1.5788 H       
  53 H53           -9.0128    -1.9921     3.7190 H       
  54 H54           -7.3011    -2.3998     3.9920 H       
  55 H55           -6.4234     1.0851     4.6481 H       
  56 H56           -5.7547    -0.5622     4.5469 H       
  57 H57           -5.1605     0.7037     2.5211 H       
  58 H58           -6.8769     1.0776     2.2287 H       
@<TRIPOS>BOND
   1    1    2 ar
   2    1   20 1
   3    1    6 ar
   4    2    3 ar
   5    2   19 1
   6    3    4 ar
   7    3   32 1
   8    4    5 ar
   9    4    7 ar
  10    5    6 ar
  11    5   10 ar
  12    6   33 1
  13    7    8 ar
  14    8    9 ar
  15    8   25 1
  16    9   10 ar
  17   10   17 1
  18   11   12 ar
  19   11   16 ar
  20   11   34 1
  21   12   13 ar
  22   12   17 1
  23   13   14 ar
  24   13   35 1
  25   14   15 ar
  26   14   18 1
  27   15   16 ar
  28   15   36 1
  29   16   37 1
  30   17   38 1
  31   19   21 1
  32   20   22 1
  33   21   24 1
  34   21   39 1
  35   21   40 1
  36   22   23 1
  37   22   41 1
  38   22   42 1
  39   23   43 1
  40   23   44 1
  41   23   45 1
  42   24   46 1
  43   24   47 1
  44   24   48 1
  45   25   26 1
  46   25   49 1
  47   25   50 1
  48   26   27 1
  49   26   31 1
  50   27   28 1
  51   27   51 1
  52   27   52 1
  53   28   29 1
  54   28   53 1
  55   28   54 1
  56   29   30 1
  57   30   31 1
  58   30   55 1
  59   30   56 1
  60   31   57 1
  61   31   58 1

#	End of record

