#	Name: ASD01880643
#	Creating user name:	WinNT
#	Creation time:	15. 06. 2019 19:41

#	Modifying user name:	WinNT
#	Modification time:	15. 06. 2019 19:41

#	Program:	/corina/corina34_cracker 3.40 0067  02.08.2006

@<TRIPOS>MOLECULE
ASD01880643
  58   61    0    0    0
SMALL
NO_CHARGES


@<TRIPOS>ATOM
   1 N1             0.3072     1.3100    -0.8096 N.ar    
   2 C2             0.2694    -0.0050    -0.7372 C.ar    
   3 N3             1.0824    -0.6815     0.0490 N.ar    
   4 C4             1.9771    -0.0595     0.8037 C.ar    
   5 C5             2.0533     1.3189     0.7608 C.ar    
   6 C6             1.1775     2.0050    -0.0828 C.ar    
   7 C7             3.0566     2.0636     1.6033 C.3     
   8 O8             4.2862     2.1835     0.8851 O.3     
   9 C9             5.3023     2.8331     1.5073 C.ar    
  10 C10            6.5270     2.9853     0.8645 C.ar    
  11 C11            7.5539     3.6431     1.4948 C.ar    
  12 C12            7.3775     4.1625     2.7816 C.ar    
  13 C13            6.1453     4.0072     3.4226 C.ar    
  14 C14            5.1170     3.3508     2.7837 C.ar    
  15 C15            8.9697     3.9736     1.0927 C.3     
  16 N16            9.5580     4.6996     2.2240 N.am    
  17 C17            8.6361     4.8063     3.1961 C.2     
  18 O18            8.8152     5.3564     4.2655 O.2     
  19 C19            2.8997    -0.8468     1.6982 C.3     
  20 N20            1.2147     3.3876    -0.1618 N.3     
  21 C21           -0.0188     3.9792     0.3750 C.3     
  22 C22            0.0946     5.5052     0.3432 C.3     
  23 N23            0.3296     5.9476    -1.0383 N.3     
  24 C24            1.5631     5.3561    -1.5751 C.3     
  25 C25            1.4497     3.8301    -1.5433 C.3     
  26 C26            0.3690     7.4137    -1.1220 C.3     
  27 C27           12.3782     7.1965     1.8021 C.3     
  28 C28           10.9500     6.6512     1.7393 C.3     
  29 C29           10.9255     5.2217     2.2842 C.3     
  30 H30           -0.4480    -0.5435    -1.3387 H       
  31 H31            2.6718     3.0572     1.8332 H       
  32 H32            3.2292     1.5173     2.5306 H       
  33 H33            6.6696     2.5862    -0.1289 H       
  34 H34            5.9988     4.4042     4.4163 H       
  35 H35            4.1649     3.2314     3.2795 H       
  36 H36            9.5291     3.0574     0.9037 H       
  37 H37            8.9691     4.6032     0.2029 H       
  38 H38            3.8084    -1.0986     1.1514 H       
  39 H39            3.1558    -0.2486     2.5727 H       
  40 H40            2.4022    -1.7626     2.0175 H       
  41 H41           -0.8673     3.6649    -0.2327 H       
  42 H42           -0.1642     3.6467     1.4028 H       
  43 H43           -0.8306     5.9464     0.7140 H       
  44 H44            0.9264     5.8212     0.9728 H       
  45 H45            1.7085     5.6886    -2.6029 H       
  46 H46            2.4116     5.6704    -0.9674 H       
  47 H47            2.3749     3.3889    -1.9141 H       
  48 H48            0.6179     3.5141    -2.1728 H       
  49 H49            1.1741     7.7921    -0.4921 H       
  50 H50            0.5442     7.7141    -2.1551 H       
  51 H51           -0.5820     7.8229    -0.7810 H       
  52 H52           12.7221     7.1960     2.8364 H       
  53 H53           13.0342     6.5671     1.2008 H       
  54 H54           12.3957     8.2149     1.4139 H       
  55 H55           10.2940     7.2806     2.3406 H       
  56 H56           10.6061     6.6517     0.7049 H       
  57 H57           11.2694     5.2212     3.3185 H       
  58 H58           11.5815     4.5923     1.6828 H       
@<TRIPOS>BOND
   1    1    2 ar
   2    1    6 ar
   3    2    3 ar
   4    2   30 1
   5    3    4 ar
   6    4    5 ar
   7    4   19 1
   8    5    6 ar
   9    5    7 1
  10    6   20 1
  11    7    8 1
  12    7   31 1
  13    7   32 1
  14    8    9 1
  15    9   10 ar
  16    9   14 ar
  17   10   11 ar
  18   10   33 1
  19   11   12 ar
  20   11   15 1
  21   12   13 ar
  22   12   17 1
  23   13   14 ar
  24   13   34 1
  25   14   35 1
  26   15   16 1
  27   15   36 1
  28   15   37 1
  29   16   17 am
  30   16   29 1
  31   17   18 2
  32   19   38 1
  33   19   39 1
  34   19   40 1
  35   20   21 1
  36   20   25 1
  37   21   22 1
  38   21   41 1
  39   21   42 1
  40   22   23 1
  41   22   43 1
  42   22   44 1
  43   23   24 1
  44   23   26 1
  45   24   25 1
  46   24   45 1
  47   24   46 1
  48   25   47 1
  49   25   48 1
  50   26   49 1
  51   26   50 1
  52   26   51 1
  53   27   28 1
  54   27   52 1
  55   27   53 1
  56   27   54 1
  57   28   29 1
  58   28   55 1
  59   28   56 1
  60   29   57 1
  61   29   58 1

#	End of record

