#	Name: ASD01840481
#	Creating user name:	WinNT
#	Creation time:	15. 06. 2019 19:37

#	Modifying user name:	WinNT
#	Modification time:	15. 06. 2019 19:37

#	Program:	/corina/corina34_cracker 3.40 0067  02.08.2006

@<TRIPOS>MOLECULE
ASD01840481
  50   53    0    0    0
SMALL
NO_CHARGES


@<TRIPOS>ATOM
   1 C1             0.2611     1.7552    -0.9980 C.ar    
   2 C2             0.3841     0.5320    -1.6195 C.ar    
   3 N3             1.4990    -0.1677    -1.4965 N.ar    
   4 N4             2.4999     0.2427    -0.8111 N.ar    
   5 C5             1.3546     2.2267    -0.2364 C.ar    
   6 C6             1.5104     3.4570     0.5171 C.2     
   7 C7             2.4928     1.4121    -0.1670 C.ar    
   8 S8             3.7250     2.1824     0.8223 S.3     
   9 C9             2.7118     3.5783     1.1344 C.2     
  10 C10           -0.9999     2.5697    -1.1313 C.3     
  11 C11           -0.7562    -0.0106    -2.4419 C.3     
  12 N12            0.5179     4.4243     0.5985 N.pl3   
  13 C13            3.1102     4.7236     1.9514 C.2     
  14 O14            2.3404     5.6527     2.1138 O.2     
  15 N15            4.3297     4.7507     2.5248 N.am    
  16 C16            5.0757     5.6831     3.3831 C.3     
  17 C17            5.4973     3.8578     2.5728 C.3     
  18 C18            5.8492     4.4755     3.9303 C.3     
  19 C19            7.3435     4.7296     4.1388 C.3     
  20 F20            5.2352     3.8462     5.0185 F       
  21 C21            8.0275     3.4289     4.5645 C.3     
  22 C22            9.5218     3.6830     4.7730 C.3     
  23 O23           10.1401     2.4988     5.2822 O.3     
  24 C24           11.5506     2.6267     5.4862 C.3     
  25 C25           12.2128     3.0086     4.1579 C.3     
  26 C26           11.5331     4.2683     3.6100 C.3     
  27 O27           10.1238     4.0361     3.5252 O.3     
  28 H28           -1.6441     2.3852    -0.2716 H       
  29 H29           -0.7456     3.6287    -1.1742 H       
  30 H30           -1.5220     2.2841    -2.0445 H       
  31 H31           -0.6493     0.3210    -3.4747 H       
  32 H32           -0.7433    -1.1000    -2.4068 H       
  33 H33           -1.7008     0.3547    -2.0389 H       
  34 H34           -0.4028     4.1923     0.4002 H       
  35 H35            0.7452     5.3322     0.8537 H       
  36 H36            5.6996     6.3818     2.8256 H       
  37 H37            4.4548     6.1761     4.1311 H       
  38 H38            5.2341     2.8018     2.6332 H       
  39 H39            6.2346     4.0653     1.7972 H       
  40 H40            7.7851     5.0844     3.2076 H       
  41 H41            7.4791     5.4825     4.9153 H       
  42 H42            7.5859     3.0741     5.4957 H       
  43 H43            7.8918     2.6761     3.7880 H       
  44 H44            9.6560     4.4978     5.4845 H       
  45 H45           11.7433     3.4032     6.2265 H       
  46 H46           11.9561     1.6776     5.8366 H       
  47 H47           13.2720     3.2070     4.3216 H       
  48 H48           12.0982     2.1923     3.4447 H       
  49 H49           11.7252     5.1070     4.2793 H       
  50 H50           11.9263     4.4932     2.6186 H       
@<TRIPOS>BOND
   1    1    2 ar
   2    1    5 ar
   3    1   10 1
   4    2   11 1
   5    2    3 ar
   6    3    4 ar
   7    4    7 ar
   8    5    7 ar
   9    5    6 1
  10    6    9 2
  11    6   12 1
  12    7    8 1
  13    8    9 1
  14    9   13 1
  15   10   28 1
  16   10   29 1
  17   10   30 1
  18   11   31 1
  19   11   32 1
  20   11   33 1
  21   12   34 1
  22   12   35 1
  23   13   14 2
  24   13   15 am
  25   15   16 1
  26   15   17 1
  27   16   18 1
  28   16   36 1
  29   16   37 1
  30   17   18 1
  31   17   38 1
  32   17   39 1
  33   18   19 1
  34   18   20 1
  35   19   21 1
  36   19   40 1
  37   19   41 1
  38   21   22 1
  39   21   42 1
  40   21   43 1
  41   22   23 1
  42   22   27 1
  43   22   44 1
  44   23   24 1
  45   24   25 1
  46   24   45 1
  47   24   46 1
  48   25   26 1
  49   25   47 1
  50   25   48 1
  51   26   27 1
  52   26   49 1
  53   26   50 1

#	End of record

