#	Name: ASD07300601
#	Creating user name:	WinNT
#	Creation time:	15. 06. 2019 21:10

#	Modifying user name:	WinNT
#	Modification time:	15. 06. 2019 21:10

#	Program:	/corina/corina34_cracker 3.40 0067  02.08.2006

@<TRIPOS>MOLECULE
ASD07300601
  46   49    0    0    0
SMALL
NO_CHARGES


@<TRIPOS>ATOM
   1 C1            -0.0363     1.3409    -0.0328 C.ar    
   2 C2            -0.0127    -0.0422    -0.0572 C.ar    
   3 C3             1.2050    -0.6987    -0.0683 C.ar    
   4 C4             2.3744     0.0715    -0.0542 C.ar    
   5 C5             2.2648     1.4628    -0.0296 C.ar    
   6 N6             1.0816     2.0412    -0.0200 N.ar    
   7 C7            -1.4210     3.0088     1.1713 C.3     
   8 C8            -1.3609     2.0595    -0.0271 C.3     
   9 O9            -2.6770     3.6902     1.1768 O.3     
  10 C10            5.7961    -1.0908    -0.5232 C.2     
  11 C11            7.0392    -0.9431    -1.1881 C.2     
  12 N12            4.7778    -0.2262    -0.8338 N.pl3   
  13 N13            7.1892     0.0131    -2.0825 N.2     
  14 C14            6.1898     0.8503    -2.3776 C.2     
  15 C15            4.9896     0.7493    -1.7717 C.2     
  16 N16            5.3635    -1.9329     0.4015 N.2     
  17 C17            4.0988    -1.6534     0.7010 C.2     
  18 C18            3.7019    -0.5776    -0.0645 C.2     
  19 N19            8.0907    -1.7987    -0.8989 N.pl3   
  20 C20            9.3443    -1.7449    -1.6676 C.3     
  21 C21           10.5137    -1.6608    -0.6800 C.3     
  22 O22           10.3998    -2.7180     0.2756 O.3     
  23 C23            9.2220    -2.6523     1.0834 C.3     
  24 C24            7.9886    -2.7834     0.1898 C.3     
  25 C25            3.2473    -2.3832     1.7076 C.3     
  26 H26           -0.9353    -0.6036    -0.0672 H       
  27 H27            1.2525    -1.7775    -0.0870 H       
  28 H28            3.1577     2.0702    -0.0185 H       
  29 H29           -1.3136     2.4374     2.0933 H       
  30 H30           -0.6130     3.7369     1.0989 H       
  31 H31           -1.4683     2.6310    -0.9490 H       
  32 H32           -2.1689     1.3315     0.0453 H       
  33 H33           -2.7850     4.3102     1.9110 H       
  34 H34            6.3470     1.6231    -3.1155 H       
  35 H35            4.1960     1.4364    -2.0259 H       
  36 H36            9.4411    -2.6445    -2.2754 H       
  37 H37            9.3431    -0.8650    -2.3109 H       
  38 H38           11.4549    -1.7589    -1.2210 H       
  39 H39           10.4872    -0.7003    -0.1653 H       
  40 H40            9.2339    -3.4638     1.8110 H       
  41 H41            9.1908    -1.6955     1.6045 H       
  42 H42            7.0899    -2.5908     0.7758 H       
  43 H43            7.9465    -3.7893    -0.2279 H       
  44 H44            3.3582    -1.9142     2.6853 H       
  45 H45            2.2026    -2.3391     1.3999 H       
  46 H46            3.5653    -3.4242     1.7658 H       
@<TRIPOS>BOND
   1    1    2 ar
   2    1    6 ar
   3    1    8 1
   4    2    3 ar
   5    2   26 1
   6    3    4 ar
   7    3   27 1
   8    4    5 ar
   9    4   18 1
  10    5    6 ar
  11    5   28 1
  12    7    8 1
  13    7    9 1
  14    7   29 1
  15    7   30 1
  16    8   31 1
  17    8   32 1
  18    9   33 1
  19   10   11 1
  20   10   12 1
  21   10   16 2
  22   11   13 2
  23   11   19 1
  24   12   15 1
  25   12   18 1
  26   13   14 1
  27   14   15 2
  28   14   34 1
  29   15   35 1
  30   16   17 1
  31   17   18 2
  32   17   25 1
  33   19   20 1
  34   19   24 1
  35   20   21 1
  36   20   36 1
  37   20   37 1
  38   21   22 1
  39   21   38 1
  40   21   39 1
  41   22   23 1
  42   23   24 1
  43   23   40 1
  44   23   41 1
  45   24   42 1
  46   24   43 1
  47   25   44 1
  48   25   45 1
  49   25   46 1

#	End of record

