#	Name: ASD03910012
#	Creating user name:	WinNT
#	Creation time:	15. 06. 2019 20:47

#	Modifying user name:	WinNT
#	Modification time:	15. 06. 2019 20:47

#	Program:	/corina/corina34_cracker 3.40 0067  02.08.2006

@<TRIPOS>MOLECULE
ASD03910012
  62   62    0    0    0
SMALL
NO_CHARGES


@<TRIPOS>ATOM
   1 C1            -1.8930     0.7492     0.8104 C.3     
   2 C2            -0.9854    -0.4772     0.9255 C.3     
   3 C3             0.4758    -0.0450     0.7884 C.3     
   4 C4             0.8197     0.9499     1.8987 C.3     
   5 C5            -0.0879     2.1763     1.7837 C.3     
   6 C6            -1.5491     1.7440     1.9208 C.3     
   7 O7            -1.6970     1.3691    -0.4621 O.3     
   8 O8            -1.1814    -1.0972     2.1980 O.3     
   9 P9            -1.8757    -2.5392     2.3732 P.3     
  10 O10           -1.9821    -2.8968     3.9394 O.3     
  11 O11           -3.3507    -2.5066     1.7287 O.3     
  12 O12           -1.0601    -3.5660     1.6871 O.2     
  13 Na13          -2.8246    -4.6608     4.3114 Du      
  14 Na14          -4.5660    -1.1653     2.5560 Du      
  15 P15           -2.8791     1.5520    -1.5397 P.3     
  16 O16           -3.9943     2.5515    -0.9486 O.3     
  17 O17           -2.2750     2.1660    -2.8999 O.3     
  18 Na18          -3.3061     4.3684    -0.5178 Du      
  19 C19           -3.0535     2.3492    -4.0842 C.3     
  20 O20           -3.4959     0.2369    -1.8234 O.2     
  21 O21           -2.3968     2.8895     1.8134 O.3     
  22 P22           -3.5968     3.1920     2.8433 P.3     
  23 O23           -3.0944     2.9178     4.3481 O.3     
  24 O24           -4.0512     4.7300     2.7010 O.3     
  25 O25           -4.7439     2.3083     2.5374 O.2     
  26 Na26          -1.5611     4.0553     4.9094 Du      
  27 Na27          -5.5353     5.2515     3.9197 Du      
  28 O28            0.2333     3.1055     2.8208 O.3     
  29 P29            1.0963     4.4405     2.5657 P.3     
  30 O30            2.5068     4.0743     2.3076 O.2     
  31 O31            0.5043     5.2269     1.2916 O.3     
  32 O32            1.0168     5.3875     3.8653 O.3     
  33 Na33          -1.4507     5.5834     1.3972 Du      
  34 C34            1.7625     6.5999     3.9916 C.3     
  35 O35            0.6237     0.3300     3.1713 O.3     
  36 P36            1.8058     0.1471     4.2489 P.3     
  37 O37            2.9383    -0.5702     3.6219 O.2     
  38 O38            2.3002     1.5937     4.7539 O.3     
  39 O39            1.2614    -0.7022     5.5037 O.3     
  40 Na40           0.8758     2.6779     5.6231 Du      
  41 Na41           2.6207    -1.0092     6.9242 Du      
  42 P42            1.5572    -1.5062     0.9254 P.3     
  43 O43            1.3305    -2.4630    -0.3494 O.3     
  44 O44            3.0952    -1.0329     0.9744 O.3     
  45 O45            1.2296    -2.2480     2.1635 O.2     
  46 Na46          -0.5760    -2.9224    -0.6878 Du      
  47 C47            4.1815    -1.9373     1.1846 C.3     
  48 H48           -2.9340     0.4412     0.9081 H       
  49 H49           -1.2304    -1.1860     0.1344 H       
  50 H50            0.6253     0.4279    -0.1823 H       
  51 H51            1.8607     1.2579     1.8011 H       
  52 H52            0.0616     2.6492     0.8131 H       
  53 H53           -1.6986     1.2712     2.8914 H       
  54 H54           -3.4426     1.3865    -4.4157 H       
  55 H55           -3.8835     3.0233    -3.8727 H       
  56 H56           -2.4281     2.7775    -4.8675 H       
  57 H57            2.8281     6.3793     3.9288 H       
  58 H58            1.4848     7.2826     3.1885 H       
  59 H59            1.5433     7.0627     4.9539 H       
  60 H60            5.1210    -1.3846     1.1772 H       
  61 H61            4.0597    -2.4339     2.1472 H       
  62 H62            4.1924    -2.6830     0.3898 H       
@<TRIPOS>BOND
   1    1    2 1
   2    1    7 1
   3    1    6 1
   4    1   48 1
   5    2    3 1
   6    2    8 1
   7    2   49 1
   8    3    4 1
   9    3   42 1
  10    3   50 1
  11    4    5 1
  12    4   35 1
  13    4   51 1
  14    5    6 1
  15    5   28 1
  16    5   52 1
  17    6   21 1
  18    6   53 1
  19    7   15 1
  20    8    9 1
  21    9   10 1
  22    9   11 1
  23    9   12 2
  24   10   13 1
  25   11   14 1
  26   15   16 1
  27   15   17 1
  28   15   20 2
  29   16   18 1
  30   17   19 1
  31   19   54 1
  32   19   55 1
  33   19   56 1
  34   21   22 1
  35   22   23 1
  36   22   24 1
  37   22   25 2
  38   23   26 1
  39   24   27 1
  40   28   29 1
  41   29   30 2
  42   29   31 1
  43   29   32 1
  44   31   33 1
  45   32   34 1
  46   34   57 1
  47   34   58 1
  48   34   59 1
  49   35   36 1
  50   36   37 2
  51   36   38 1
  52   36   39 1
  53   38   40 1
  54   39   41 1
  55   42   43 1
  56   42   44 1
  57   42   45 2
  58   43   46 1
  59   44   47 1
  60   47   60 1
  61   47   61 1
  62   47   62 1

#	End of record

