#	Name: ASD01812614
#	Creating user name:	WinNT
#	Creation time:	15. 06. 2019 19:28

#	Modifying user name:	WinNT
#	Modification time:	15. 06. 2019 19:28

#	Program:	/corina/corina34_cracker 3.40 0067  02.08.2006

@<TRIPOS>MOLECULE
ASD01812614
  51   55    0    0    0
SMALL
NO_CHARGES


@<TRIPOS>ATOM
   1 O1            -0.0163     1.3522     0.0095 O.3     
   2 C2             0.0021    -0.0041     0.0020 C.ar    
   3 C3             1.2105    -0.6847    -0.0132 C.ar    
   4 C4             1.2312    -2.0655    -0.0208 C.ar    
   5 C5             0.0448    -2.7828    -0.0128 C.ar    
   6 C6            -1.1603    -2.1223     0.0027 C.ar    
   7 C7            -1.2004    -0.7252     0.0155 C.ar    
   8 C8            -2.5947    -2.5891     0.0137 C.3     
   9 N9            -3.4200    -1.3759     0.0279 N.am    
  10 C10           -2.6104    -0.3028     0.0372 C.2     
  11 C11           -4.8845    -1.3401     0.0414 C.3     
  12 C12           -5.3737    -1.3358     1.4668 C.ar    
  13 O13           -2.9891     0.8526     0.0485 O.2     
  14 C14            1.1734     2.0057     0.0016 C.ar    
  15 C15            1.8048     2.3329     1.2089 C.ar    
  16 C16           -5.6646    -0.1326     2.0829 C.ar    
  17 C17           -6.1138    -0.1337     3.3927 C.ar    
  18 C18           -6.2559    -1.3614     4.0434 C.ar    
  19 C19           -5.9420    -2.5302     3.3534 C.ar    
  20 N20           -5.5230    -2.4802     2.1056 N.ar    
  21 C21            1.1984     1.9798     2.4572 C.1     
  22 C22            1.7735     2.3480    -1.2031 C.ar    
  23 C23            2.9856     3.0133    -1.2084 C.ar    
  24 C24            3.6092     3.3421    -0.0160 C.ar    
  25 C25            3.0296     3.0054     1.1881 C.ar    
  26 N26            0.7174     1.6997     3.4475 N.1     
  27 F27            1.1726     2.0305    -2.3707 F       
  28 C28           -6.7335    -1.4198     5.4481 C.2     
  29 C29           -6.9088    -2.5489     6.1937 C.2     
  30 C30           -7.0820    -0.3194     6.2551 C.2     
  31 N31           -7.4524    -0.7736     7.4230 N.2     
  32 N32           -7.3526    -2.1701     7.4093 N.pl3   
  33 C33           -7.6712    -3.0650     8.5245 C.3     
  34 H34            2.1387    -0.1327    -0.0195 H       
  35 H35            2.1758    -2.5889    -0.0333 H       
  36 H36            0.0677    -3.8625    -0.0192 H       
  37 H37           -2.8050    -3.1749    -0.8812 H       
  38 H38           -2.7882    -3.1845     0.9060 H       
  39 H39           -5.2306    -0.4387    -0.4642 H       
  40 H40           -5.2741    -2.2181    -0.4738 H       
  41 H41           -5.5423     0.7979     1.5485 H       
  42 H42           -6.3480     0.7914     3.8984 H       
  43 H43           -6.0471    -3.4862     3.8447 H       
  44 H44            3.4489     3.2777    -2.1475 H       
  45 H45            4.5560     3.8614    -0.0301 H       
  46 H46            3.5218     3.2608     2.1149 H       
  47 H47           -6.7254    -3.5624     5.8691 H       
  48 H48           -7.0485     0.7190     5.9602 H       
  49 H49           -6.7804    -3.2179     9.1337 H       
  50 H50           -8.4567    -2.6194     9.1349 H       
  51 H51           -8.0138    -4.0236     8.1347 H       
@<TRIPOS>BOND
   1    1    2 1
   2    1   14 1
   3    2    3 ar
   4    2    7 ar
   5    3    4 ar
   6    3   34 1
   7    4    5 ar
   8    4   35 1
   9    5    6 ar
  10    5   36 1
  11    6    8 1
  12    6    7 ar
  13    7   10 1
  14    8    9 1
  15    8   37 1
  16    8   38 1
  17    9   10 am
  18    9   11 1
  19   10   13 2
  20   11   12 1
  21   11   39 1
  22   11   40 1
  23   12   16 ar
  24   12   20 ar
  25   14   22 ar
  26   14   15 ar
  27   15   21 1
  28   15   25 ar
  29   16   17 ar
  30   16   41 1
  31   17   18 ar
  32   17   42 1
  33   18   19 ar
  34   18   28 1
  35   19   20 ar
  36   19   43 1
  37   21   26 3
  38   22   23 ar
  39   22   27 1
  40   23   24 ar
  41   23   44 1
  42   24   25 ar
  43   24   45 1
  44   25   46 1
  45   28   30 1
  46   28   29 2
  47   29   32 1
  48   29   47 1
  49   30   31 2
  50   30   48 1
  51   31   32 1
  52   32   33 1
  53   33   49 1
  54   33   50 1
  55   33   51 1

#	End of record

