#	Name: ASD02390015
#	Creating user name:	WinNT
#	Creation time:	15. 06. 2019 20:20

#	Modifying user name:	WinNT
#	Modification time:	15. 06. 2019 20:20

#	Program:	/corina/corina34_cracker 3.40 0067  02.08.2006

@<TRIPOS>MOLECULE
ASD02390015
  44   46    0    0    0
SMALL
NO_CHARGES


@<TRIPOS>ATOM
   1 O1             0.9134     3.9502     3.5736 O.2     
   2 N2             0.4145     0.4146     0.5514 N.3     
   3 N3             1.5253     2.1210     2.4723 N.am    
   4 C4             0.7566     0.2078    -2.3085 C.3     
   5 C5             1.3577     1.3619    -1.5014 C.3     
   6 C6             0.6499    -1.0297    -1.4131 C.3     
   7 C7             0.4845     1.6278    -0.2730 C.3     
   8 C8            -0.2027    -0.6944    -0.1873 C.3     
   9 C9            -0.2667     0.6604     1.7483 C.ar    
  10 C10            0.2861     1.5111     2.7060 C.ar    
  11 C11           -1.4960     0.0636     1.9840 C.ar    
  12 C12           -0.3945     1.7507     3.8899 C.ar    
  13 C13           -2.1676     0.3084     3.1675 C.ar    
  14 C14           -1.6172     1.1469     4.1188 C.ar    
  15 C15            1.7882     3.3350     2.9954 C.2     
  16 C16            3.1401     3.9186     2.8659 C.ar    
  17 C17            3.4286     5.1549     3.4467 C.ar    
  18 C18            4.1354     3.2333     2.1675 C.ar    
  19 C19            4.6924     5.6936     3.3226 C.ar    
  20 C20            2.3617     5.8995     4.2071 C.3     
  21 C21            5.3953     3.7834     2.0509 C.ar    
  22 C22            5.6731     5.0113     2.6243 C.ar    
  23 H23           -0.2356     0.4884    -2.6619 H       
  24 H24            1.3988    -0.0137    -3.1610 H       
  25 H25            2.3651     1.0960    -1.1811 H       
  26 H26            1.3967     2.2578    -2.1210 H       
  27 H27            0.1833    -1.8424    -1.9697 H       
  28 H28            1.6462    -1.3331    -1.0915 H       
  29 H29           -0.5189     1.9070    -0.5943 H       
  30 H30            0.9176     2.4396     0.3115 H       
  31 H31           -0.2688    -1.5693     0.4594 H       
  32 H32           -1.2029    -0.4043    -0.5090 H       
  33 H33           -1.9290    -0.5920     1.2430 H       
  34 H34            0.0304     2.4088     4.6334 H       
  35 H35            2.1942     1.6697     1.9341 H       
  36 H36           -3.1252    -0.1569     3.3493 H       
  37 H37           -2.1458     1.3344     5.0418 H       
  38 H38            3.9199     2.2744     1.7197 H       
  39 H39            4.9168     6.6501     3.7710 H       
  40 H40            2.2882     5.4976     5.2176 H       
  41 H41            2.6206     6.9572     4.2547 H       
  42 H42            1.4045     5.7822     3.6989 H       
  43 H43            6.1665     3.2540     1.5110 H       
  44 H44            6.6610     5.4375     2.5300 H       
@<TRIPOS>BOND
   1    1   15 2
   2    2    7 1
   3    2    8 1
   4    2    9 1
   5    3   10 1
   6    3   15 am
   7    3   35 1
   8    4    5 1
   9    4    6 1
  10    4   23 1
  11    4   24 1
  12    5    7 1
  13    5   25 1
  14    5   26 1
  15    6    8 1
  16    6   27 1
  17    6   28 1
  18    7   29 1
  19    7   30 1
  20    8   31 1
  21    8   32 1
  22    9   10 ar
  23    9   11 ar
  24   10   12 ar
  25   11   13 ar
  26   11   33 1
  27   12   14 ar
  28   12   34 1
  29   13   14 ar
  30   13   36 1
  31   14   37 1
  32   15   16 1
  33   16   17 ar
  34   16   18 ar
  35   17   19 ar
  36   17   20 1
  37   18   21 ar
  38   18   38 1
  39   19   22 ar
  40   19   39 1
  41   20   40 1
  42   20   41 1
  43   20   42 1
  44   21   22 ar
  45   21   43 1
  46   22   44 1

#	End of record

