#	Name: ASD03730261
#	Creating user name:	WinNT
#	Creation time:	15. 06. 2019 20:44

#	Modifying user name:	WinNT
#	Modification time:	15. 06. 2019 20:44

#	Program:	/corina/corina34_cracker 3.40 0067  02.08.2006

@<TRIPOS>MOLECULE
ASD03730261
  65   70    0    0    0
SMALL
NO_CHARGES


@<TRIPOS>ATOM
   1 O1            -0.2852     1.2831     0.6578 O.3     
   2 C2            -0.2446    -0.1558     0.6926 C.3     
   3 O3             0.9227    -0.4840    -0.0837 O.3     
   4 C4             1.7540     0.5930     0.0336 C.ar    
   5 C5             1.0100     1.6802     0.4863 C.ar    
   6 C6             3.1081     0.7352    -0.2105 C.ar    
   7 C7             3.7352     1.9616    -0.0125 C.ar    
   8 C8             2.9789     3.0444     0.4261 C.ar    
   9 C9             1.6304     2.9032     0.6790 C.ar    
  10 O10            5.0451     2.3065    -0.1718 O.3     
  11 C11            3.9176     4.2181     0.5087 C.3     
  12 C12            5.1499     3.7397    -0.2715 C.3     
  13 N13            3.3390     6.3977     0.8791 N.am    
  14 C14            3.3264     5.4619    -0.0909 C.2     
  15 C15            4.2568     4.5819     1.9233 C.ar    
  16 C16            4.8218     3.8866     2.9840 C.ar    
  17 C17            5.0124     4.5257     4.2091 C.ar    
  18 C18            4.6373     5.8461     4.3576 C.ar    
  19 C19            4.0757     6.5367     3.3029 C.ar    
  20 C20            3.8793     5.9116     2.0726 C.ar    
  21 O21            2.9184     5.5976    -1.2250 O.2     
  22 C22            2.8440     7.7652     0.7027 C.3     
  23 C23            1.3585     7.8205     1.0649 C.3     
  24 C24            0.8415     9.2487     0.8806 C.3     
  25 C25           -0.6440     9.3040     1.2428 C.3     
  26 C26           -1.1610    10.7322     1.0585 C.3     
  27 C27            5.2211     2.4683     2.8150 C.ar    
  28 C28            4.4206     1.4472     3.3381 C.ar    
  29 C29            4.7987     0.1254     3.1771 C.ar    
  30 C30            5.9688    -0.1840     2.4991 C.ar    
  31 C31            6.7639     0.8294     1.9800 C.ar    
  32 C32            6.3913     2.1489     2.1301 C.ar    
  33 O33            6.3380    -1.4821     2.3427 O.3     
  34 C34            7.5541    -1.7299     1.6344 C.3     
  35 O35            3.2757     1.7520     4.0025 O.3     
  36 C36            2.5088     0.6579     4.5092 C.3     
  37 H37           -0.1354    -0.5111     1.7173 H       
  38 H38           -1.1400    -0.5754     0.2340 H       
  39 H39            3.6826    -0.1113    -0.5567 H       
  40 H40            1.0565     3.7490     1.0280 H       
  41 H41            6.0672     4.0944     0.1983 H       
  42 H42            5.0977     4.0602    -1.3121 H       
  43 H43            5.4512     3.9900     5.0379 H       
  44 H44            4.7840     6.3419     5.3058 H       
  45 H45            3.7859     7.5691     3.4319 H       
  46 H46            3.4017     8.4401     1.3520 H       
  47 H47            2.9762     8.0683    -0.3360 H       
  48 H48            0.8008     7.1456     0.4156 H       
  49 H49            1.2262     7.5174     2.1035 H       
  50 H50            1.3992     9.9236     1.5299 H       
  51 H51            0.9737     9.5518    -0.1580 H       
  52 H52           -1.2017     8.6291     0.5935 H       
  53 H53           -0.7763     9.0009     2.2814 H       
  54 H54           -0.6033    11.4071     1.7078 H       
  55 H55           -1.0288    11.0353     0.0199 H       
  56 H56           -2.2193    10.7716     1.3166 H       
  57 H57            4.1829    -0.6652     3.5798 H       
  58 H58            7.6743     0.5834     1.4536 H       
  59 H59            7.0091     2.9345     1.7208 H       
  60 H60            7.7312    -2.8041     1.5811 H       
  61 H61            7.4763    -1.3240     0.6258 H       
  62 H62            8.3825    -1.2505     2.1560 H       
  63 H63            3.1129     0.0861     5.2136 H       
  64 H64            1.6227     1.0394     5.0165 H       
  65 H65            2.2058     0.0136     3.6839 H       
@<TRIPOS>BOND
   1    1    2 1
   2    1    5 1
   3    2    3 1
   4    2   37 1
   5    2   38 1
   6    3    4 1
   7    4    5 ar
   8    4    6 ar
   9    5    9 ar
  10    6    7 ar
  11    6   39 1
  12    7    8 ar
  13    7   10 1
  14    8    9 ar
  15    8   11 1
  16    9   40 1
  17   10   12 1
  18   11   12 1
  19   11   14 1
  20   11   15 1
  21   12   41 1
  22   12   42 1
  23   13   14 am
  24   13   20 1
  25   13   22 1
  26   14   21 2
  27   15   16 ar
  28   15   20 ar
  29   16   17 ar
  30   16   27 1
  31   17   18 ar
  32   17   43 1
  33   18   19 ar
  34   18   44 1
  35   19   20 ar
  36   19   45 1
  37   22   23 1
  38   22   46 1
  39   22   47 1
  40   23   24 1
  41   23   48 1
  42   23   49 1
  43   24   25 1
  44   24   50 1
  45   24   51 1
  46   25   26 1
  47   25   52 1
  48   25   53 1
  49   26   54 1
  50   26   55 1
  51   26   56 1
  52   27   28 ar
  53   27   32 ar
  54   28   29 ar
  55   28   35 1
  56   29   30 ar
  57   29   57 1
  58   30   31 ar
  59   30   33 1
  60   31   32 ar
  61   31   58 1
  62   32   59 1
  63   33   34 1
  64   34   60 1
  65   34   61 1
  66   34   62 1
  67   35   36 1
  68   36   63 1
  69   36   64 1
  70   36   65 1

#	End of record

