#	Name: ASD07190003
#	Creating user name:	WinNT
#	Creation time:	15. 06. 2019 21:09

#	Modifying user name:	WinNT
#	Modification time:	15. 06. 2019 21:09

#	Program:	/corina/corina34_cracker 3.40 0067  02.08.2006

@<TRIPOS>MOLECULE
ASD07190003
  34   35    0    0    0
SMALL
NO_CHARGES


@<TRIPOS>ATOM
   1 C1            -0.0167     1.3799     0.0096 C.ar    
   2 C2             0.0021    -0.0041     0.0020 C.ar    
   3 C3             1.2065    -0.6807    -0.0131 C.ar    
   4 C4             2.4031     0.0321    -0.0207 C.ar    
   5 C5             2.3791     1.4248    -0.0130 C.ar    
   6 C6             1.1698     2.0925     0.0021 C.ar    
   7 Cl7            1.1383     3.8282     0.0112 Cl      
   8 C8             3.7001    -0.6902    -0.0364 C.2     
   9 N9             4.9022    -0.1497    -0.0449 N.2     
  10 N10            5.7650    -1.1069    -0.0573 N.pl3   
  11 N11            5.1477    -2.2366    -0.0570 N.2     
  12 N12            3.8764    -2.0191    -0.0389 N.2     
  13 C13            7.2199    -0.9363    -0.0703 C.3     
  14 C14            7.7323    -0.8841     1.3460 C.2     
  15 O15            6.9616    -0.9796     2.2707 O.2     
  16 C16            9.2064    -0.7128     1.6082 C.3     
  17 C17            9.4568    -0.6918     3.1174 C.3     
  18 C18            9.9749    -1.8770     0.9798 C.3     
  19 C19            9.6840     0.6044     0.9936 C.3     
  20 Cl20          -1.4902    -0.8911     0.0121 Cl      
  21 H21           -0.9602     1.9054     0.0169 H       
  22 H22            1.2202    -1.7606    -0.0187 H       
  23 H23            3.3045     1.9817    -0.0184 H       
  24 H24            7.6796    -1.7756    -0.5922 H       
  25 H25            7.4723    -0.0078    -0.5824 H       
  26 H26            9.1166    -1.6302     3.5553 H       
  27 H27           10.5230    -0.5679     3.3071 H       
  28 H28            8.9093     0.1376     3.5651 H       
  29 H29            9.7964    -1.8920    -0.0954 H       
  30 H30           11.0410    -1.7531     1.1695 H       
  31 H31            9.6346    -2.8154     1.4177 H       
  32 H32            9.1365     1.4339     1.4413 H       
  33 H33           10.7502     0.7284     1.1832 H       
  34 H34            9.5055     0.5895    -0.0816 H       
@<TRIPOS>BOND
   1    1    2 ar
   2    1    6 ar
   3    1   21 1
   4    2    3 ar
   5    2   20 1
   6    3    4 ar
   7    3   22 1
   8    4    5 ar
   9    4    8 1
  10    5    6 ar
  11    5   23 1
  12    6    7 1
  13    8    9 2
  14    8   12 1
  15    9   10 1
  16   10   11 1
  17   10   13 1
  18   11   12 2
  19   13   14 1
  20   13   24 1
  21   13   25 1
  22   14   15 2
  23   14   16 1
  24   16   17 1
  25   16   18 1
  26   16   19 1
  27   17   26 1
  28   17   27 1
  29   17   28 1
  30   18   29 1
  31   18   30 1
  32   18   31 1
  33   19   32 1
  34   19   33 1
  35   19   34 1

#	End of record

