#	Name: ASD01680008
#	Creating user name:	WinNT
#	Creation time:	15. 06. 2019 19:22

#	Modifying user name:	WinNT
#	Modification time:	15. 06. 2019 19:22

#	Program:	/corina/corina34_cracker 3.40 0067  02.08.2006

@<TRIPOS>MOLECULE
ASD01680008
  80   83    0    0    0
SMALL
NO_CHARGES


@<TRIPOS>ATOM
   1 C1            -0.0822     1.2538     0.5123 C.ar    
   2 C2             0.0054     0.0161    -0.1084 C.ar    
   3 C3            -1.1144    -0.5490    -0.6911 C.ar    
   4 C4            -2.3262     0.1144    -0.6583 C.ar    
   5 C5            -2.4258     1.3535    -0.0398 C.ar    
   6 C6            -1.3028     1.9248     0.5536 C.ar    
   7 N7             1.0525     1.8250     1.1014 N.pl3   
   8 S8            -1.4217     3.4967     1.3407 S.3     
   9 C9            -1.8515     3.0658     3.0496 C.3     
  10 C10           -1.9933     4.3445     3.8777 C.3     
  11 N11           -2.3414     3.9956     5.2616 N.3     
  12 N12           -3.6547     2.0251    -0.0078 N.am    
  13 C13           -4.8056     1.3286    -0.0894 C.2     
  14 C14           -6.1025     2.0260     0.0416 C.ar    
  15 O15           -4.7773     0.1268    -0.2708 O.2     
  16 C16           -7.2931     1.3076    -0.0426 C.ar    
  17 C17           -8.5112     1.9728     0.0819 C.ar    
  18 C18           -8.5311     3.3538     0.2900 C.ar    
  19 C19           -7.3472     4.0600     0.3720 C.ar    
  20 C20           -6.1368     3.4063     0.2557 C.ar    
  21 C21           -9.7796     1.2186    -0.0066 C.2     
  22 N22          -10.9569     1.8634     0.1141 N.am    
  23 O23           -9.7606     0.0166    -0.1881 O.2     
  24 C24          -12.1582     1.1717    -0.0875 C.ar    
  25 C25          -12.1802     0.0327    -0.8805 C.ar    
  26 C26          -13.3651    -0.6505    -1.0806 C.ar    
  27 C27          -14.5344    -0.2043    -0.4928 C.ar    
  28 C28          -14.5243     0.9333     0.3020 C.ar    
  29 C29          -13.3320     1.6224     0.5122 C.ar    
  30 S30          -13.3116     3.0671     1.5207 S.3     
  31 C31          -12.9812     2.4043     3.1766 C.3     
  32 C32          -12.9319     3.5535     4.1854 C.3     
  33 N33          -12.6643     3.0168     5.5264 N.3     
  34 C34            2.3337     1.1156     1.0625 C.3     
  35 C35            3.0349     1.4158    -0.2372 C.2     
  36 C36            3.2071     1.5758     2.2314 C.3     
  37 O37            4.2342     0.8706    -0.4943 O.3     
  38 O38            2.5175     2.1473    -1.0479 O.2     
  39 C39            2.5637     1.1659     3.5310 C.ar    
  40 C40            2.8565    -0.0628     4.1023 C.ar    
  41 C41            2.2412    -0.3975     5.2992 C.ar    
  42 C42            1.3630     0.4984     5.8785 C.ar    
  43 N43            1.1079     1.6589     5.3062 N.ar    
  44 C44            1.6787     2.0128     4.1715 C.ar    
  45 N45          -15.7095     1.3846     0.8958 N.pl3   
  46 H46            0.9499    -0.5068    -0.1370 H       
  47 H47           -1.0414    -1.5124    -1.1739 H       
  48 H48           -3.1974    -0.3317    -1.1149 H       
  49 H49            0.9902     2.6903     1.5352 H       
  50 H50           -2.7947     2.5196     3.0603 H       
  51 H51           -1.0656     2.4423     3.4758 H       
  52 H52           -1.0501     4.8908     3.8670 H       
  53 H53           -2.7792     4.9681     3.4515 H       
  54 H54           -2.4408     4.8238     5.8292 H       
  55 H55           -3.1785     3.4331     5.2930 H       
  56 H56           -3.6773     2.9915     0.0732 H       
  57 H57           -7.2721     0.2400    -0.2040 H       
  58 H58           -9.4745     3.8706     0.3867 H       
  59 H59           -7.3682     5.1278     0.5323 H       
  60 H60           -5.2145     3.9645     0.3207 H       
  61 H61          -10.9723     2.8065     0.3404 H       
  62 H62          -11.2699    -0.3202    -1.3423 H       
  63 H63          -13.3777    -1.5361    -1.6986 H       
  64 H64          -15.4573    -0.7418    -0.6529 H       
  65 H65          -13.7743     1.7102     3.4550 H       
  66 H66          -12.0249     1.8813     3.1745 H       
  67 H67          -12.1388     4.2476     3.9070 H       
  68 H68          -13.8882     4.0765     4.1875 H       
  69 H69          -12.6269     3.7568     6.2113 H       
  70 H70          -13.3505     2.3224     5.7815 H       
  71 H71            2.1575     0.0428     1.1409 H       
  72 H72            4.1919     1.1153     2.1523 H       
  73 H73            3.3099     2.6606     2.2030 H       
  74 H74            4.6449     1.0925    -1.3412 H       
  75 H75            3.5470    -0.7433     3.6264 H       
  76 H76            2.4456    -1.3466     5.7723 H       
  77 H77            0.8798     0.2452     6.8105 H       
  78 H78            1.4449     2.9715     3.7326 H       
  79 H79          -16.5385     0.9019     0.7518 H       
  80 H80          -15.7014     2.1798     1.4512 H       
@<TRIPOS>BOND
   1    1    2 ar
   2    1    7 1
   3    1    6 ar
   4    2    3 ar
   5    2   46 1
   6    3    4 ar
   7    3   47 1
   8    4    5 ar
   9    4   48 1
  10    5    6 ar
  11    5   12 1
  12    6    8 1
  13    7   34 1
  14    7   49 1
  15    8    9 1
  16    9   10 1
  17    9   50 1
  18    9   51 1
  19   10   11 1
  20   10   52 1
  21   10   53 1
  22   11   54 1
  23   11   55 1
  24   12   13 am
  25   12   56 1
  26   13   14 1
  27   13   15 2
  28   14   16 ar
  29   14   20 ar
  30   16   17 ar
  31   16   57 1
  32   17   18 ar
  33   17   21 1
  34   18   19 ar
  35   18   58 1
  36   19   20 ar
  37   19   59 1
  38   20   60 1
  39   21   22 am
  40   21   23 2
  41   22   24 1
  42   22   61 1
  43   24   25 ar
  44   24   29 ar
  45   25   26 ar
  46   25   62 1
  47   26   27 ar
  48   26   63 1
  49   27   28 ar
  50   27   64 1
  51   28   29 ar
  52   28   45 1
  53   29   30 1
  54   30   31 1
  55   31   32 1
  56   31   65 1
  57   31   66 1
  58   32   33 1
  59   32   67 1
  60   32   68 1
  61   33   69 1
  62   33   70 1
  63   34   35 1
  64   34   36 1
  65   34   71 1
  66   35   37 1
  67   35   38 2
  68   36   39 1
  69   36   72 1
  70   36   73 1
  71   37   74 1
  72   39   40 ar
  73   39   44 ar
  74   40   41 ar
  75   40   75 1
  76   41   42 ar
  77   41   76 1
  78   42   43 ar
  79   42   77 1
  80   43   44 ar
  81   44   78 1
  82   45   79 1
  83   45   80 1

#	End of record

