#	Name: ASD01811356
#	Creating user name:	WinNT
#	Creation time:	15. 06. 2019 19:26

#	Modifying user name:	WinNT
#	Modification time:	15. 06. 2019 19:26

#	Program:	/corina/corina34_cracker 3.40 0067  02.08.2006

@<TRIPOS>MOLECULE
ASD01811356
  60   65    0    0    0
SMALL
NO_CHARGES


@<TRIPOS>ATOM
   1 C1             0.2420     0.9843     0.0516 C.ar    
   2 C2             0.4055    -0.3770     0.2291 C.ar    
   3 C3             1.6676    -0.9126     0.3844 C.ar    
   4 C4             2.7874    -0.0850     0.3629 C.ar    
   5 C5             2.6107     1.2841     0.1827 C.ar    
   6 C6             1.3496     1.8140     0.0289 C.ar    
   7 N7             4.1452    -0.3833     0.4963 N.am    
   8 C8             4.9174     0.7174     0.4159 C.2     
   9 C9             3.9887     1.8824     0.2064 C.3     
  10 C10            4.3050     2.6266    -1.0935 C.3     
  11 N11            4.5805     4.0342    -0.7220 N.3     
  12 C12            5.0372     3.9992     0.6919 C.3     
  13 C13            4.1307     2.9164     1.3344 C.3     
  14 C14            5.6096     4.6169    -1.5934 C.3     
  15 C15            5.0945     4.7181    -3.0466 C.3     
  16 C16            5.1270     6.2321    -3.3518 C.3     
  17 O17            6.1115     6.7707    -2.4427 O.3     
  18 C18            5.8922     6.0817    -1.1925 C.3     
  19 O19            6.1267     0.7610     0.4976 O.2     
  20 C20            4.6688    -1.7362     0.7005 C.3     
  21 C21            4.9489    -2.3734    -0.6361 C.ar    
  22 C22            6.1136    -2.0620    -1.3191 C.ar    
  23 C23            6.3744    -2.6448    -2.5451 C.ar    
  24 C24            5.4639    -3.5456    -3.0924 C.ar    
  25 C25            4.2949    -3.8543    -2.4007 C.ar    
  26 C26            4.0457    -3.2712    -1.1744 C.ar    
  27 F27            6.9950    -1.1876    -0.7864 F       
  28 C28            5.7382    -4.1744    -4.4092 C.2     
  29 C29            6.8725    -3.9568    -5.2153 C.2     
  30 N30            6.7515    -4.6873    -6.2919 N.2     
  31 N31            5.5453    -5.3943    -6.2166 N.pl3   
  32 C32            4.9401    -5.0725    -5.0556 C.2     
  33 C33            5.0321    -6.3269    -7.2231 C.3     
  34 H34           -0.7474     1.3988    -0.0735 H       
  35 H35           -0.4588    -1.0244     0.2466 H       
  36 H36            1.7874    -1.9769     0.5234 H       
  37 H37            1.2243     2.8777    -0.1104 H       
  38 H38            5.1816     2.1882    -1.5704 H       
  39 H39            3.4500     2.5793    -1.7679 H       
  40 H40            6.0856     3.7065     0.7499 H       
  41 H41            4.8799     4.9657     1.1706 H       
  42 H42            3.1595     3.3336     1.6007 H       
  43 H43            4.6145     2.4742     2.2053 H       
  44 H44            6.5235     4.0243    -1.5525 H       
  45 H45            5.7552     4.1776    -3.7244 H       
  46 H46            4.0763     4.3357    -3.1184 H       
  47 H47            5.4297     6.4045    -4.3846 H       
  48 H48            4.1509     6.6784    -3.1619 H       
  49 H49            5.0335     6.5050    -0.6715 H       
  50 H50            6.7828     6.1387    -0.5665 H       
  51 H51            5.5910    -1.6854     1.2792 H       
  52 H52            3.9334    -2.3327     1.2404 H       
  53 H53            7.2820    -2.4019    -3.0777 H       
  54 H54            3.5860    -4.5520    -2.8216 H       
  55 H55            3.1395    -3.5109    -0.6379 H       
  56 H56            7.6981    -3.3001    -4.9840 H       
  57 H57            3.9921    -5.4521    -4.7040 H       
  58 H58            5.3880    -7.3330    -7.0012 H       
  59 H59            3.9423    -6.3152    -7.2071 H       
  60 H60            5.3842    -6.0264    -8.2100 H       
@<TRIPOS>BOND
   1    1    2 ar
   2    1    6 ar
   3    1   34 1
   4    2    3 ar
   5    2   35 1
   6    3    4 ar
   7    3   36 1
   8    4    5 ar
   9    4    7 1
  10    5    6 ar
  11    5    9 1
  12    6   37 1
  13    7    8 am
  14    7   20 1
  15    8    9 1
  16    8   19 2
  17    9   10 1
  18    9   13 1
  19   10   11 1
  20   10   38 1
  21   10   39 1
  22   11   12 1
  23   11   14 1
  24   12   13 1
  25   12   40 1
  26   12   41 1
  27   13   42 1
  28   13   43 1
  29   14   15 1
  30   14   18 1
  31   14   44 1
  32   15   16 1
  33   15   45 1
  34   15   46 1
  35   16   17 1
  36   16   47 1
  37   16   48 1
  38   17   18 1
  39   18   49 1
  40   18   50 1
  41   20   21 1
  42   20   51 1
  43   20   52 1
  44   21   22 ar
  45   21   26 ar
  46   22   23 ar
  47   22   27 1
  48   23   24 ar
  49   23   53 1
  50   24   25 ar
  51   24   28 1
  52   25   26 ar
  53   25   54 1
  54   26   55 1
  55   28   29 1
  56   28   32 2
  57   29   30 2
  58   29   56 1
  59   30   31 1
  60   31   32 1
  61   31   33 1
  62   32   57 1
  63   33   58 1
  64   33   59 1
  65   33   60 1

#	End of record

