#	Name: ASD01811426
#	Creating user name:	WinNT
#	Creation time:	15. 06. 2019 19:26

#	Modifying user name:	WinNT
#	Modification time:	15. 06. 2019 19:26

#	Program:	/corina/corina34_cracker 3.40 0067  02.08.2006

@<TRIPOS>MOLECULE
ASD01811426
  58   62    0    0    0
SMALL
NO_CHARGES


@<TRIPOS>ATOM
   1 N1             0.0651     1.5756     0.5558 N.am    
   2 C2             0.1731     0.2218     1.1190 C.3     
   3 C3             1.6182    -0.2618     0.8755 C.3     
   4 C4             2.4023     1.0644     0.6923 C.3     
   5 C5             1.3605     1.9424    -0.0450 C.3     
   6 C6            -1.0372     2.3507     0.5796 C.2     
   7 O7            -2.0570     1.9414     1.1000 O.2     
   8 N8            -1.0092     3.5794     0.0265 N.am    
   9 C9            -2.1835     4.3365    -0.0566 C.ar    
  10 C10           -2.1279     5.7203     0.0599 C.ar    
  11 C11           -3.2847     6.4721    -0.0214 C.ar    
  12 C12           -4.5027     5.8534    -0.2188 C.ar    
  13 C13           -4.5688     4.4648    -0.3374 C.ar    
  14 C14           -3.4011     3.7066    -0.2607 C.ar    
  15 C15           -0.8020     6.4031     0.2761 C.3     
  16 C16           -7.9660     3.3999    -0.9935 C.2     
  17 C17           -9.4081     3.6198    -1.3764 C.3     
  18 C18           -9.7059     5.1215    -1.2713 C.3     
  19 C19           -8.6124     5.9079    -1.9998 C.3     
  20 C20           -7.2966     5.8029    -1.2197 C.3     
  21 N21           -7.0359     4.3942    -0.9277 N.pl3   
  22 N22           -6.1335     2.5156    -0.4040 N.2     
  23 N23           -7.3744     2.2897    -0.6679 N.2     
  24 C24           -5.8732     3.7992    -0.5486 C.2     
  25 C25          -11.0421     5.4147    -1.9036 C.ar    
  26 C26          -12.0552     5.9735    -1.1449 C.ar    
  27 C27          -13.2807     6.2444    -1.7173 C.ar    
  28 C28          -13.4973     5.9538    -3.0657 C.ar    
  29 C29          -12.4703     5.3903    -3.8257 C.ar    
  30 C30          -11.2482     5.1290    -3.2417 C.ar    
  31 C31          -14.7671     6.2319    -3.6665 C.1     
  32 N32          -15.7745     6.4525    -4.1430 N.1     
  33 H33           -0.0338     0.2479     2.1888 H       
  34 H34           -0.5300    -0.4446     0.6194 H       
  35 H35            1.9906    -0.8140     1.7383 H       
  36 H36            1.6742    -0.8707    -0.0269 H       
  37 H37            2.6666     1.4985     1.6566 H       
  38 H38            3.2896     0.9120     0.0778 H       
  39 H39            1.3614     1.7172    -1.1115 H       
  40 H40            1.5698     2.9992     0.1206 H       
  41 H41           -0.1752     3.9390    -0.3141 H       
  42 H42           -3.2355     7.5471     0.0702 H       
  43 H43           -5.4047     6.4443    -0.2811 H       
  44 H44           -3.4458     2.6318    -0.3555 H       
  45 H45           -0.3580     6.6484    -0.6887 H       
  46 H46           -0.9535     7.3178     0.8493 H       
  47 H47           -0.1353     5.7372     0.8240 H       
  48 H48           -9.5727     3.2827    -2.3998 H       
  49 H49          -10.0576     3.0673    -0.6974 H       
  50 H50           -9.7275     5.4155    -0.2219 H       
  51 H51           -8.4749     5.4970    -3.0000 H       
  52 H52           -8.9071     6.9546    -2.0752 H       
  53 H53           -6.4823     6.2088    -1.8199 H       
  54 H54           -7.3792     6.3603    -0.2866 H       
  55 H55          -11.8863     6.1977    -0.1020 H       
  56 H56          -14.0709     6.6799    -1.1237 H       
  57 H57          -12.6312     5.1631    -4.8691 H       
  58 H58          -10.4516     4.6970    -3.8293 H       
@<TRIPOS>BOND
   1    1    2 1
   2    1    5 1
   3    1    6 am
   4    2    3 1
   5    2   33 1
   6    2   34 1
   7    3    4 1
   8    3   35 1
   9    3   36 1
  10    4    5 1
  11    4   37 1
  12    4   38 1
  13    5   39 1
  14    5   40 1
  15    6    7 2
  16    6    8 am
  17    8    9 1
  18    8   41 1
  19    9   10 ar
  20    9   14 ar
  21   10   11 ar
  22   10   15 1
  23   11   12 ar
  24   11   42 1
  25   12   13 ar
  26   12   43 1
  27   13   14 ar
  28   13   24 1
  29   14   44 1
  30   15   45 1
  31   15   46 1
  32   15   47 1
  33   16   17 1
  34   16   21 1
  35   16   23 2
  36   17   18 1
  37   17   48 1
  38   17   49 1
  39   18   19 1
  40   18   25 1
  41   18   50 1
  42   19   20 1
  43   19   51 1
  44   19   52 1
  45   20   21 1
  46   20   53 1
  47   20   54 1
  48   21   24 1
  49   22   23 1
  50   22   24 2
  51   25   26 ar
  52   25   30 ar
  53   26   27 ar
  54   26   55 1
  55   27   28 ar
  56   27   56 1
  57   28   29 ar
  58   28   31 1
  59   29   30 ar
  60   29   57 1
  61   30   58 1
  62   31   32 3

#	End of record

