#	Name: ASD00070033
#	Creating user name:	WinNT
#	Creation time:	15. 06. 2019 18:29

#	Modifying user name:	WinNT
#	Modification time:	15. 06. 2019 18:29

#	Program:	/corina/corina34_cracker 3.40 0067  02.08.2006

@<TRIPOS>MOLECULE
ASD00070033
  66   69    0    0    0
SMALL
NO_CHARGES


@<TRIPOS>ATOM
   1 C1            -0.0184     1.5028     0.0103 C.2     
   2 C2             0.0021    -0.0041     0.0020 C.3     
   3 C3             1.4513    -0.4944    -0.0145 C.3     
   4 O4             1.0236     2.1234     0.0037 O.2     
   5 N5            -1.1946     2.1607     0.0195 N.am    
   6 O6             1.4707    -1.9232    -0.0223 O.3     
   7 C7             2.7838    -2.4866    -0.0379 C.3     
   8 C8            -1.2145     3.6256     0.0275 C.3     
   9 C9            -2.5315     4.1210    -0.5732 C.3     
  10 C10           -2.5522     5.6509    -0.5648 C.3     
  11 C11           -2.4266     6.1547     0.8744 C.3     
  12 C12           -1.1096     5.6592     1.4751 C.3     
  13 C13           -1.0888     4.1294     1.4667 C.3     
  14 C14           -2.4474     7.6846     0.8828 C.3     
  15 C15           -2.4475     8.1867     2.3281 C.3     
  16 N16           -2.4674     9.6555     2.3362 N.3     
  17 C17           -2.7062    10.1711     3.6902 C.3     
  18 C18           -2.8652    11.6923     3.6376 C.3     
  19 C19           -1.5944    12.3135     3.0515 C.3     
  20 C20           -1.3419    11.7238     1.6611 C.3     
  21 C21           -1.2270    10.2018     1.7711 C.3     
  22 O22           -0.1096    16.6286     4.2738 O.3     
  23 C23            0.6621    15.6949     4.8571 C.2     
  24 C24            0.2442    14.4694     4.5127 C.2     
  25 C25           -0.9069    14.6646     3.6230 C.ar    
  26 C26           -1.0698    16.0564     3.5196 C.ar    
  27 C27           -1.7681    13.8064     2.9414 C.ar    
  28 C28           -2.7787    14.3311     2.1661 C.ar    
  29 C29           -2.9398    15.7051     2.0633 C.ar    
  30 C30           -2.0948    16.5647     2.7324 C.ar    
  31 H31           -0.4983    -0.3791     0.8948 H       
  32 H32           -0.5153    -0.3696    -0.8850 H       
  33 H33            1.9516    -0.1193    -0.9073 H       
  34 H34            1.9686    -0.1289     0.8726 H       
  35 H35           -2.0280     1.6644     0.0207 H       
  36 H36            3.3288    -2.1624     0.8487 H       
  37 H37            2.7125    -3.5743    -0.0430 H       
  38 H38            3.3118    -2.1529    -0.9312 H       
  39 H39           -0.3805     4.0035    -0.5638 H       
  40 H40           -2.6210     3.7621    -1.5985 H       
  41 H41           -3.3655     3.7431     0.0182 H       
  42 H42           -1.7182     6.0288    -1.1561 H       
  43 H43           -3.4905     6.0039    -0.9927 H       
  44 H44           -3.2606     5.7768     1.4658 H       
  45 H45           -0.2756     6.0372     0.8838 H       
  46 H46           -1.0201     6.0182     2.5004 H       
  47 H47           -1.9228     3.7515     2.0581 H       
  48 H48           -0.1506     3.7764     1.8947 H       
  49 H49           -1.5649     8.0627     0.3669 H       
  50 H50           -3.3446     8.0386     0.3752 H       
  51 H51           -3.3300     7.8085     2.8441 H       
  52 H52           -1.5502     7.8327     2.8358 H       
  53 H53           -3.6149     9.7247     4.0939 H       
  54 H54           -1.8614     9.9163     4.3301 H       
  55 H55           -3.7183    11.9474     3.0089 H       
  56 H56           -3.0269    12.0764     4.6448 H       
  57 H57           -0.7475    12.0913     3.7007 H       
  58 H58           -2.1710    11.9795     1.0013 H       
  59 H59           -0.4152    12.1304     1.2562 H       
  60 H60           -0.3891     9.9467     2.4199 H       
  61 H61           -1.0614     9.7776     0.7807 H       
  62 H62            1.4979    15.9027     5.5088 H       
  63 H63            0.6690    13.5273     4.8263 H       
  64 H64           -3.4482    13.6700     1.6358 H       
  65 H65           -3.7353    16.1056     1.4524 H       
  66 H66           -2.2304    17.6325     2.6450 H       
@<TRIPOS>BOND
   1    1    2 1
   2    1    4 2
   3    1    5 am
   4    2    3 1
   5    2   31 1
   6    2   32 1
   7    3    6 1
   8    3   33 1
   9    3   34 1
  10    5    8 1
  11    5   35 1
  12    6    7 1
  13    7   36 1
  14    7   37 1
  15    7   38 1
  16    8    9 1
  17    8   13 1
  18    8   39 1
  19    9   10 1
  20    9   40 1
  21    9   41 1
  22   10   11 1
  23   10   42 1
  24   10   43 1
  25   11   12 1
  26   11   14 1
  27   11   44 1
  28   12   13 1
  29   12   45 1
  30   12   46 1
  31   13   47 1
  32   13   48 1
  33   14   15 1
  34   14   49 1
  35   14   50 1
  36   15   16 1
  37   15   51 1
  38   15   52 1
  39   16   17 1
  40   16   21 1
  41   17   18 1
  42   17   53 1
  43   17   54 1
  44   18   19 1
  45   18   55 1
  46   18   56 1
  47   19   20 1
  48   19   27 1
  49   19   57 1
  50   20   21 1
  51   20   58 1
  52   20   59 1
  53   21   60 1
  54   21   61 1
  55   22   23 1
  56   22   26 1
  57   23   24 2
  58   23   62 1
  59   24   25 1
  60   24   63 1
  61   25   26 ar
  62   25   27 ar
  63   26   30 ar
  64   27   28 ar
  65   28   29 ar
  66   28   64 1
  67   29   30 ar
  68   29   65 1
  69   30   66 1

#	End of record

