#	Name: ASD03091256
#	Creating user name:	WinNT
#	Creation time:	15. 06. 2019 20:30

#	Modifying user name:	WinNT
#	Modification time:	15. 06. 2019 20:30

#	Program:	/corina/corina34_cracker 3.40 0067  02.08.2006

@<TRIPOS>MOLECULE
ASD03091256
  61   65    0    0    0
SMALL
NO_CHARGES


@<TRIPOS>ATOM
   1 N1             0.0503     1.2233     0.2317 N.2     
   2 C2             0.0400    -0.0724     0.1570 C.2     
   3 N3             1.1571    -0.8184    -0.0518 N.am    
   4 C4             2.3648    -0.2245    -0.1953 C.2     
   5 C5             2.4111     1.2431    -0.1159 C.ar    
   6 C6             3.6034     1.9508    -0.2499 C.ar    
   7 C7             3.5848     3.3326    -0.1655 C.ar    
   8 C8             2.3851     4.0103     0.0514 C.ar    
   9 C9             1.2092     3.3289     0.1851 C.ar    
  10 C10            1.1991     1.9346     0.1038 C.ar    
  11 O11            3.3735    -0.8798    -0.3824 O.2     
  12 C12            1.0529    -2.2781    -0.1218 C.3     
  13 C13            0.8523    -2.7059    -1.5770 C.3     
  14 C14            0.7435    -4.2303    -1.6500 C.3     
  15 C15           -0.4315    -2.0763    -2.1213 C.3     
  16 C16            2.0443    -2.2390    -2.4148 C.3     
  17 O17            0.5561    -4.6299    -3.0091 O.3     
  18 C18           -1.2781    -0.7867     0.3103 C.3     
  19 C19           -2.3722    -0.0851     1.1174 C.3     
  20 C20           -2.4923    -0.1900    -0.4043 C.3     
  21 N21            7.3663     4.8311    -1.5028 N.3     
  22 C22            7.2521     3.8895    -0.3785 C.3     
  23 C23            5.9246     3.1494    -0.4303 C.3     
  24 N24            4.7753     4.0528    -0.2981 N.3     
  25 C25            4.7081     4.9759    -1.4397 C.3     
  26 C26            5.4096     6.2841    -1.1065 C.3     
  27 C27            6.9204     6.1682    -1.0856 C.3     
  28 C28            6.7792     4.4068    -2.7556 C.3     
  29 C29            5.2665     4.2863    -2.6710 C.3     
  30 H30            4.5328     1.4269    -0.4176 H       
  31 H31            2.3862     5.0884     0.1150 H       
  32 H32            0.2883     3.8674     0.3535 H       
  33 H33            1.9676    -2.7266     0.2660 H       
  34 H34            0.2037    -2.6107     0.4751 H       
  35 H35            1.6581    -4.6788    -1.2622 H       
  36 H36           -0.1057    -4.5629    -1.0531 H       
  37 H37           -0.3540    -0.9903    -2.0692 H       
  38 H38           -0.5745    -2.3811    -3.1580 H       
  39 H39           -1.2807    -2.4089    -1.5244 H       
  40 H40            2.9589    -2.6875    -2.0270 H       
  41 H41            1.9014    -2.5438    -3.4515 H       
  42 H42            2.1218    -1.1530    -2.3628 H       
  43 H43            0.4788    -5.5861    -3.1309 H       
  44 H44           -1.2188    -1.8728     0.3808 H       
  45 H45           -3.0330    -0.7096     1.7186 H       
  46 H46           -2.1387     0.8932     1.5375 H       
  47 H47           -2.3377     0.7193    -0.9852 H       
  48 H48           -3.2320    -0.8835    -0.8041 H       
  49 H49            8.0676     3.1681    -0.4302 H       
  50 H50            7.3198     4.4404     0.5595 H       
  51 H51            5.8514     2.6218    -1.3812 H       
  52 H52            5.8952     2.4201     0.3792 H       
  53 H53            3.6583     5.1949    -1.6347 H       
  54 H54            5.1267     7.0311    -1.8481 H       
  55 H55            5.0715     6.6224    -0.1270 H       
  56 H56            7.2784     6.3634    -0.0747 H       
  57 H57            7.3437     6.9114    -1.7613 H       
  58 H58            7.0333     5.1320    -3.5286 H       
  59 H59            7.1961     3.4381    -3.0313 H       
  60 H60            4.9964     3.2308    -2.6390 H       
  61 H61            4.8249     4.7365    -3.5601 H       
@<TRIPOS>BOND
   1    1    2 2
   2    1   10 1
   3    2    3 1
   4    2   18 1
   5    3    4 am
   6    3   12 1
   7    4    5 1
   8    4   11 2
   9    5    6 ar
  10    5   10 ar
  11    6    7 ar
  12    6   30 1
  13    7    8 ar
  14    7   24 1
  15    8    9 ar
  16    8   31 1
  17    9   10 ar
  18    9   32 1
  19   12   13 1
  20   12   33 1
  21   12   34 1
  22   13   14 1
  23   13   15 1
  24   13   16 1
  25   14   17 1
  26   14   35 1
  27   14   36 1
  28   15   37 1
  29   15   38 1
  30   15   39 1
  31   16   40 1
  32   16   41 1
  33   16   42 1
  34   17   43 1
  35   18   19 1
  36   18   20 1
  37   18   44 1
  38   19   20 1
  39   19   45 1
  40   19   46 1
  41   20   47 1
  42   20   48 1
  43   21   22 1
  44   21   27 1
  45   21   28 1
  46   22   23 1
  47   22   49 1
  48   22   50 1
  49   23   24 1
  50   23   51 1
  51   23   52 1
  52   24   25 1
  53   25   26 1
  54   25   29 1
  55   25   53 1
  56   26   27 1
  57   26   54 1
  58   26   55 1
  59   27   56 1
  60   27   57 1
  61   28   29 1
  62   28   58 1
  63   28   59 1
  64   29   60 1
  65   29   61 1

#	End of record

