#	Name: ASD02038020
#	Creating user name:	WinNT
#	Creation time:	15. 06. 2019 20:16

#	Modifying user name:	WinNT
#	Modification time:	15. 06. 2019 20:16

#	Program:	/corina/corina34_cracker 3.40 0067  02.08.2006

@<TRIPOS>MOLECULE
ASD02038020
  50   53    0    0    0
SMALL
NO_CHARGES


@<TRIPOS>ATOM
   1 C1            -0.0170     1.3847     0.0168 C.ar    
   2 N2             1.1853     2.1018     0.0020 N.am    
   3 N3             3.5194     2.1282    -0.0195 N.am    
   4 C4             2.3608     1.4483     0.0890 C.2     
   5 C5             6.4520     3.8209    -0.4919 C.3     
   6 O6             6.6570     4.8625    -1.4484 O.3     
   7 C7             7.7311     5.6740    -1.2568 C.ar    
   8 C8             7.9886     6.7056    -2.1483 C.ar    
   9 C9             8.5655     5.4738    -0.1671 C.ar    
  10 C10            9.6567     6.2976     0.0286 C.ar    
  11 C11            9.9182     7.3261    -0.8661 C.ar    
  12 C12            9.0790     7.5293    -1.9539 C.ar    
  13 N13           11.0237     8.1632    -0.6714 N.am    
  14 C14           11.0896     9.3591    -1.2846 C.2     
  15 C15            9.9718     9.8300    -2.1755 C.3     
  16 C16            9.3659     8.6461    -2.9237 C.3     
  17 O17            2.3761     0.2453     0.2655 O.2     
  18 O18           12.0609    10.0660    -1.1170 O.2     
  19 C19           -0.1370     0.2444     0.7997 C.ar    
  20 C20           -1.3243    -0.4614     0.8125 C.ar    
  21 C21           -2.3934    -0.0331     0.0456 C.ar    
  22 C22           -2.2762     1.1030    -0.7361 C.ar    
  23 C23           -1.0935     1.8159    -0.7473 C.ar    
  24 Cl24          -3.8840    -0.9227     0.0634 Cl      
  25 C25           -3.4422     1.5660    -1.5710 C.3     
  26 C26            4.9511     1.7937     0.0187 C.3     
  27 C27            5.2055     3.0186    -0.8707 C.3     
  28 C28            3.9084     3.5300    -0.2349 C.3     
  29 H29            1.1723     3.0689    -0.0708 H       
  30 H30            7.3196     3.1610    -0.4817 H       
  31 H31            6.3162     4.2577     0.4975 H       
  32 H32            7.3362     6.8638    -2.9944 H       
  33 H33            8.3616     4.6735     0.5289 H       
  34 H34           10.3059     6.1418     0.8775 H       
  35 H35           11.7467     7.8792    -0.0904 H       
  36 H36            9.2002    10.3037    -1.5685 H       
  37 H37           10.3607    10.5527    -2.8929 H       
  38 H38           10.0688     8.2961    -3.6797 H       
  39 H39            8.4392     8.9571    -3.4060 H       
  40 H40            0.6974    -0.0907     1.3980 H       
  41 H41           -1.4182    -1.3484     1.4213 H       
  42 H42           -1.0027     2.7026    -1.3571 H       
  43 H43           -4.0570     2.2517    -0.9879 H       
  44 H44           -3.0724     2.0763    -2.4604 H       
  45 H45           -4.0407     0.7049    -1.8685 H       
  46 H46            5.3906     1.8800     1.0124 H       
  47 H47            5.1889     0.8475    -0.4673 H       
  48 H48            5.1305     2.8183    -1.9395 H       
  49 H49            3.2612     4.0588    -0.9345 H       
  50 H50            4.0672     4.0809     0.6921 H       
@<TRIPOS>BOND
   1    1   19 ar
   2    1    2 1
   3    1   23 ar
   4    2    4 am
   5    2   29 1
   6    3    4 am
   7    3   26 1
   8    3   28 1
   9    4   17 2
  10    5    6 1
  11    5   27 1
  12    5   30 1
  13    5   31 1
  14    6    7 1
  15    7    8 ar
  16    7    9 ar
  17    8   12 ar
  18    8   32 1
  19    9   10 ar
  20    9   33 1
  21   10   11 ar
  22   10   34 1
  23   11   12 ar
  24   11   13 1
  25   12   16 1
  26   13   14 am
  27   13   35 1
  28   14   15 1
  29   14   18 2
  30   15   16 1
  31   15   36 1
  32   15   37 1
  33   16   38 1
  34   16   39 1
  35   19   20 ar
  36   19   40 1
  37   20   21 ar
  38   20   41 1
  39   21   22 ar
  40   21   24 1
  41   22   23 ar
  42   22   25 1
  43   23   42 1
  44   25   43 1
  45   25   44 1
  46   25   45 1
  47   26   27 1
  48   26   46 1
  49   26   47 1
  50   27   28 1
  51   27   48 1
  52   28   49 1
  53   28   50 1

#	End of record

