#	Name: ASD05730077
#	Creating user name:	WinNT
#	Creation time:	15. 06. 2019 21:02

#	Modifying user name:	WinNT
#	Modification time:	15. 06. 2019 21:02

#	Program:	/corina/corina34_cracker 3.40 0067  02.08.2006

@<TRIPOS>MOLECULE
ASD05730077
  87   92    0    0    0
SMALL
NO_CHARGES


@<TRIPOS>ATOM
   1 N1             1.0419     1.9764     0.3769 N.pl3   
   2 C2             0.9297     0.5836     0.3020 C.ar    
   3 C3             1.9079    -0.2233     0.8685 C.ar    
   4 C4             1.7969    -1.5976     0.7950 C.ar    
   5 C5             0.7073    -2.1730     0.1546 C.ar    
   6 C6            -0.2705    -1.3662    -0.4123 C.ar    
   7 C7            -0.1626     0.0080    -0.3339 C.ar    
   8 N8             0.5948    -3.5672     0.0800 N.pl3   
   9 C9             1.7285    -4.3456    -0.0476 C.ar    
  10 N10            1.6054    -5.6636    -0.0054 N.ar    
  11 C11            2.6727    -6.4451    -0.1251 C.ar    
  12 C12            3.9380    -5.8431    -0.2977 C.ar    
  13 C13            4.0155    -4.4427    -0.3358 C.ar    
  14 N14            2.9019    -3.7449    -0.2136 N.ar    
  15 N15            2.5545    -7.8114    -0.0821 N.am    
  16 C16            3.6403    -8.5991    -0.2030 C.2     
  17 C17            4.9674    -8.0069    -0.3829 C.2     
  18 C18            5.0949    -6.6444    -0.4288 C.2     
  19 C19            1.2339    -8.4196     0.0978 C.3     
  20 C20            0.5533    -8.5475    -1.2407 C.ar    
  21 O21            3.5177    -9.8104    -0.1623 O.2     
  22 C22            6.1614    -8.8743    -0.5145 C.ar    
  23 C23            0.0100     2.8275    -0.2207 C.3     
  24 C24            6.6868    -9.5167     0.6060 C.ar    
  25 C25            7.8722    -9.8653    -1.8769 C.ar    
  26 C26            8.3924   -10.4956    -0.7604 C.ar    
  27 C27            7.7988   -10.3237     0.4771 C.ar    
  28 C28            6.7608    -9.0561    -1.7606 C.ar    
  29 C29            6.1955    -8.3703    -2.9777 C.3     
  30 S30            8.6356   -10.0900    -3.4490 S.o2    
  31 O31            7.5715   -10.4908    -4.3012 O.2     
  32 C32            9.2281    -8.4371    -3.9048 C.3     
  33 C33            9.8082    -8.4756    -5.3200 C.3     
  34 O34           10.2750    -7.1736    -5.6790 O.3     
  35 C35           -0.7536    -8.9918    -1.3118 C.ar    
  36 C36           10.8391    -7.0994    -6.9898 C.3     
  37 O37            9.7302   -10.9572    -3.1863 O.2     
  38 C38           -1.3779    -9.1092    -2.5398 C.ar    
  39 C39           -0.6954    -8.7819    -3.6962 C.ar    
  40 C40            0.6115    -8.3366    -3.6250 C.ar    
  41 C41            1.2343    -8.2151    -2.3971 C.ar    
  42 C42           -1.1386     3.0570     0.7790 C.3     
  43 N43           -1.1896     4.5091     1.0554 N.3     
  44 C44           -0.5993     5.1692    -0.1371 C.3     
  45 C45            0.5785     4.2352    -0.5127 C.3     
  46 C46           -2.5721     4.9552     1.2737 C.3     
  47 C47           -1.4977    -9.3487    -0.0509 C.3     
  48 F48           -2.7522    -9.8721    -0.3821 F       
  49 F49           -0.7688   -10.3033     0.6664 F       
  50 F50           -1.6631    -8.2021     0.7334 F       
  51 H51            1.8007     2.3783     0.8280 H       
  52 H52            2.7555     0.2242     1.3662 H       
  53 H53            2.5578    -2.2251     1.2352 H       
  54 H54           -1.1177    -1.8138    -0.9107 H       
  55 H55           -0.9231     0.6355    -0.7747 H       
  56 H56           -0.2793    -3.9860     0.1180 H       
  57 H57            4.9657    -3.9463    -0.4663 H       
  58 H58            6.0652    -6.1888    -0.5611 H       
  59 H59            1.3466    -9.4076     0.5440 H       
  60 H60            0.6308    -7.7915     0.7534 H       
  61 H61           -0.3701     2.3741    -1.1361 H       
  62 H62            6.2246    -9.3826     1.5729 H       
  63 H63            9.2651   -11.1246    -0.8556 H       
  64 H64            8.2067   -10.8218     1.3443 H       
  65 H65            6.6067    -7.3636    -3.0513 H       
  66 H66            6.4605    -8.9373    -3.8701 H       
  67 H67            5.1103    -8.3142    -2.8918 H       
  68 H68            8.3979    -7.7316    -3.8715 H       
  69 H69           10.0009    -8.1221    -3.2037 H       
  70 H70           10.6384    -9.1812    -5.3532 H       
  71 H71            9.0354    -8.7907    -6.0211 H       
  72 H72           11.1694    -6.0793    -7.1861 H       
  73 H73           11.6907    -7.7764    -7.0577 H       
  74 H74           10.0877    -7.3859    -7.7256 H       
  75 H75           -2.3989    -9.4571    -2.5954 H       
  76 H76           -1.1829    -8.8743    -4.6555 H       
  77 H77            1.1450    -8.0811    -4.5287 H       
  78 H78            2.2552    -7.8672    -2.3415 H       
  79 H79           -2.0819     2.7287     0.3425 H       
  80 H80           -0.9429     2.5101     1.7013 H       
  81 H81           -1.3253     5.2182    -0.9486 H       
  82 H82           -0.2351     6.1651     0.1153 H       
  83 H83            1.4468     4.4382     0.1141 H       
  84 H84            0.8308     4.3380    -1.5681 H       
  85 H85           -2.9957     4.4223     2.1250 H       
  86 H86           -2.5807     6.0264     1.4747 H       
  87 H87           -3.1657     4.7478     0.3833 H       
@<TRIPOS>BOND
   1    1    2 1
   2    1   23 1
   3    1   51 1
   4    2    3 ar
   5    2    7 ar
   6    3    4 ar
   7    3   52 1
   8    4    5 ar
   9    4   53 1
  10    5    6 ar
  11    5    8 1
  12    6    7 ar
  13    6   54 1
  14    7   55 1
  15    8    9 1
  16    8   56 1
  17    9   10 ar
  18    9   14 ar
  19   10   11 ar
  20   11   12 ar
  21   11   15 1
  22   12   13 ar
  23   12   18 1
  24   13   14 ar
  25   13   57 1
  26   15   16 am
  27   15   19 1
  28   16   17 1
  29   16   21 2
  30   17   18 2
  31   17   22 1
  32   18   58 1
  33   19   20 1
  34   19   59 1
  35   19   60 1
  36   20   35 ar
  37   20   41 ar
  38   22   28 ar
  39   22   24 ar
  40   23   42 1
  41   23   45 1
  42   23   61 1
  43   24   27 ar
  44   24   62 1
  45   25   26 ar
  46   25   30 1
  47   25   28 ar
  48   26   27 ar
  49   26   63 1
  50   27   64 1
  51   28   29 1
  52   29   65 1
  53   29   66 1
  54   29   67 1
  55   30   31 2
  56   30   32 1
  57   30   37 2
  58   32   33 1
  59   32   68 1
  60   32   69 1
  61   33   34 1
  62   33   70 1
  63   33   71 1
  64   34   36 1
  65   35   38 ar
  66   35   47 1
  67   36   72 1
  68   36   73 1
  69   36   74 1
  70   38   39 ar
  71   38   75 1
  72   39   40 ar
  73   39   76 1
  74   40   41 ar
  75   40   77 1
  76   41   78 1
  77   42   43 1
  78   42   79 1
  79   42   80 1
  80   43   44 1
  81   43   46 1
  82   44   45 1
  83   44   81 1
  84   44   82 1
  85   45   83 1
  86   45   84 1
  87   46   85 1
  88   46   86 1
  89   46   87 1
  90   47   48 1
  91   47   49 1
  92   47   50 1

#	End of record

