#	Name: ASD03180058
#	Creating user name:	WinNT
#	Creation time:	15. 06. 2019 20:33

#	Modifying user name:	WinNT
#	Modification time:	15. 06. 2019 20:33

#	Program:	/corina/corina34_cracker 3.40 0067  02.08.2006

@<TRIPOS>MOLECULE
ASD03180058
  44   46    0    0    0
SMALL
NO_CHARGES


@<TRIPOS>ATOM
   1 C1             0.0482     1.6235    -0.8949 C.ar    
   2 C2            -0.0891     0.2615    -0.6552 C.ar    
   3 C3             0.9983    -0.4771    -0.2042 C.ar    
   4 C4             2.2189     0.1450     0.0063 C.ar    
   5 C5             2.3553     1.5058    -0.2334 C.ar    
   6 C6             1.2694     2.2443    -0.6841 C.ar    
   7 N7             3.5882     2.1333    -0.0207 N.pl3   
   8 N8             4.7032     4.1393     0.6215 N.2     
   9 C9             4.5515     5.3587     1.1372 C.2     
  10 C10            3.6314     3.4198     0.4930 C.2     
  11 S11            2.2400     4.3305     1.0718 S.3     
  12 C12            3.2887     5.6912     1.4628 C.2     
  13 C13            5.6902     6.2811     1.3380 C.2     
  14 S14            5.6028     7.9077     2.0099 S.3     
  15 C15            7.2931     8.0852     1.8262 C.2     
  16 N16            7.8046     7.0160     1.3158 N.2     
  17 C17            6.9830     6.0248     1.0446 C.2     
  18 C18            8.0752     9.3161     2.2063 C.3     
  19 C19            7.4445     4.7178     0.4531 C.3     
  20 O20           -1.2888    -0.3490    -0.8617 O.3     
  21 C21           -1.5280    -0.8853    -2.1645 C.3     
  22 O22            0.8647    -1.8099     0.0311 O.3     
  23 C23            2.0236    -2.5065     0.4933 C.3     
  24 O24           -1.0139     2.3459    -1.3417 O.3     
  25 C25           -0.8010     3.7409    -1.5669 C.3     
  26 H26            3.0639    -0.4288     0.3571 H       
  27 H27            1.3763     3.3027    -0.8707 H       
  28 H28            4.4123     1.6678    -0.2329 H       
  29 H29            2.9724     6.6309     1.8911 H       
  30 H30            8.4064     9.2308     3.2413 H       
  31 H31            8.9430     9.4110     1.5537 H       
  32 H32            7.4417    10.1966     2.0989 H       
  33 H33            7.4162     4.7812    -0.6347 H       
  34 H34            8.4640     4.5115     0.7786 H       
  35 H35            6.7869     3.9154     0.7875 H       
  36 H36           -2.5172    -1.3422    -2.1933 H       
  37 H37           -1.4760    -0.0846    -2.9022 H       
  38 H38           -0.7733    -1.6382    -2.3917 H       
  39 H39            2.3549    -2.0741     1.4375 H       
  40 H40            1.7803    -3.5586     0.6410 H       
  41 H41            2.8197    -2.4179    -0.2460 H       
  42 H42           -1.7256     4.1971    -1.9205 H       
  43 H43           -0.4942     4.2166    -0.6354 H       
  44 H44           -0.0208     3.8730    -2.3165 H       
@<TRIPOS>BOND
   1    1    2 ar
   2    1    6 ar
   3    1   24 1
   4    2    3 ar
   5    2   20 1
   6    3    4 ar
   7    3   22 1
   8    4    5 ar
   9    4   26 1
  10    5    6 ar
  11    5    7 1
  12    6   27 1
  13    7   10 1
  14    7   28 1
  15    8   10 2
  16    8    9 1
  17    9   12 2
  18    9   13 1
  19   10   11 1
  20   11   12 1
  21   12   29 1
  22   13   14 1
  23   13   17 2
  24   14   15 1
  25   15   16 2
  26   15   18 1
  27   16   17 1
  28   17   19 1
  29   18   30 1
  30   18   31 1
  31   18   32 1
  32   19   33 1
  33   19   34 1
  34   19   35 1
  35   20   21 1
  36   21   36 1
  37   21   37 1
  38   21   38 1
  39   22   23 1
  40   23   39 1
  41   23   40 1
  42   23   41 1
  43   24   25 1
  44   25   42 1
  45   25   43 1
  46   25   44 1

#	End of record

