#	Name: ASD01917743
#	Creating user name:	WinNT
#	Creation time:	15. 06. 2019 20:09

#	Modifying user name:	WinNT
#	Modification time:	15. 06. 2019 20:09

#	Program:	/corina/corina34_cracker 3.40 0067  02.08.2006

@<TRIPOS>MOLECULE
ASD01917743
  52   55    0    0    0
SMALL
NO_CHARGES


@<TRIPOS>ATOM
   1 C1             0.7205     0.4204    -0.9846 C.ar    
   2 C2             0.8577    -0.9579    -0.9315 C.ar    
   3 C3             2.1106    -1.5300    -0.7763 C.ar    
   4 C4             3.2289    -0.7301    -0.6739 C.ar    
   5 C5             3.0973     0.6602    -0.7273 C.ar    
   6 C6             1.8313     1.2310    -0.8838 C.ar    
   7 C7             4.2548     1.4966    -0.6210 C.1     
   8 C8             5.2038     2.1822    -0.5339 C.1     
   9 C9             6.3613     3.0186    -0.4277 C.ar    
  10 C10            6.2475     4.4143    -0.4792 C.ar    
  11 N11            7.3398     5.1495    -0.3770 N.ar    
  12 C12            8.5290     4.5850    -0.2278 C.ar    
  13 N13            8.6794     3.2698    -0.1744 N.ar    
  14 C14            7.6374     2.4634    -0.2636 C.ar    
  15 N15            9.6511     5.3957    -0.1248 N.am    
  16 C16            9.6459     6.7342    -0.1626 C.2     
  17 N17           10.8599     7.2860    -0.0421 N.am    
  18 C18           11.8649     6.2228     0.0999 C.3     
  19 C19           11.0309     4.9200     0.0491 C.3     
  20 C20           12.4772     6.2869     1.5134 C.3     
  21 C21           11.5345     5.4151     2.3787 C.3     
  22 C22           11.1780     4.2543     1.4319 C.3     
  23 H23           12.6172     6.2636    -0.6879 H       
  24 H24           11.3386     4.2675    -0.7680 H       
  25 C25           11.1423     8.7235    -0.0509 C.3     
  26 O26            8.6304     7.3894    -0.2950 O.2     
  27 C27           11.3924     9.1854    -1.4879 C.3     
  28 C28           11.6954    10.6851    -1.4962 C.3     
  29 O29           11.9290    11.1164    -2.8384 O.3     
  30 C30           12.2227    12.5097    -2.9583 C.3     
  31 F31           -0.2345    -1.7469    -1.0308 F       
  32 H32           -0.2579     0.8601    -1.1098 H       
  33 H33            2.2111    -2.6045    -0.7352 H       
  34 H34            4.2046    -1.1770    -0.5524 H       
  35 H35            1.7232     2.3047    -0.9257 H       
  36 H36            5.2815     4.8816    -0.6010 H       
  37 H37            7.7677     1.3922    -0.2192 H       
  38 H38           13.4851     5.8719     1.5113 H       
  39 H39           12.4879     7.3141     1.8779 H       
  40 H40           12.0540     5.0442     3.2623 H       
  41 H41           10.6418     5.9736     2.6602 H       
  42 H42           10.2370     3.7931     1.7319 H       
  43 H43           11.9785     3.5146     1.4176 H       
  44 H44           10.2900     9.2638     0.3612 H       
  45 H45           12.0265     8.9238     0.5542 H       
  46 H46           12.2411     8.6410    -1.9020 H       
  47 H47           10.5061     8.9904    -2.0917 H       
  48 H48           10.8467    11.2295    -1.0821 H       
  49 H49           12.5817    10.8800    -0.8925 H       
  50 H50           12.3872    12.7574    -4.0070 H       
  51 H51           11.3850    13.0920    -2.5745 H       
  52 H52           13.1200    12.7426    -2.3849 H       
@<TRIPOS>BOND
   1    1    2 ar
   2    1    6 ar
   3    1   32 1
   4    2    3 ar
   5    2   31 1
   6    3    4 ar
   7    3   33 1
   8    4    5 ar
   9    4   34 1
  10    5    6 ar
  11    5    7 1
  12    6   35 1
  13    7    8 3
  14    8    9 1
  15    9   10 ar
  16    9   14 ar
  17   10   11 ar
  18   10   36 1
  19   11   12 ar
  20   12   13 ar
  21   12   15 1
  22   13   14 ar
  23   14   37 1
  24   15   16 am
  25   15   19 1
  26   16   17 am
  27   16   26 2
  28   17   18 1
  29   17   25 1
  30   18   19 1
  31   18   20 1
  32   18   23 1
  33   19   24 1
  34   19   22 1
  35   20   21 1
  36   20   38 1
  37   20   39 1
  38   21   22 1
  39   21   40 1
  40   21   41 1
  41   22   42 1
  42   22   43 1
  43   25   27 1
  44   25   44 1
  45   25   45 1
  46   27   28 1
  47   27   46 1
  48   27   47 1
  49   28   29 1
  50   28   48 1
  51   28   49 1
  52   29   30 1
  53   30   50 1
  54   30   51 1
  55   30   52 1

#	End of record

