#	Name: ASD03430768
#	Creating user name:	WinNT
#	Creation time:	15. 06. 2019 20:41

#	Modifying user name:	WinNT
#	Modification time:	15. 06. 2019 20:41

#	Program:	/corina/corina34_cracker 3.40 0067  02.08.2006

@<TRIPOS>MOLECULE
ASD03430768
  80   86    0    0    0
SMALL
NO_CHARGES


@<TRIPOS>ATOM
   1 C1             2.3077     0.2971    -2.2074 C.ar    
   2 C2             1.8070    -0.9845    -2.0786 C.ar    
   3 C3             2.5139    -1.9382    -1.3776 C.ar    
   4 C4             3.7324    -1.6225    -0.7820 C.ar    
   5 C5             4.2351    -0.3325    -0.9184 C.ar    
   6 C6             3.5263     0.6216    -1.6277 C.ar    
   7 O7             4.2492    -2.6940    -0.1169 O.3     
   8 C8             2.2585    -3.3926    -1.0859 C.3     
   9 C9             3.6227    -3.8989    -0.5974 C.3     
  10 C10            0.2174    -4.3822    -0.6674 C.ar    
  11 C11            1.1864    -3.5900    -0.0560 C.ar    
  12 C12            1.7877    -4.1417    -2.2995 C.2     
  13 N13            0.5982    -4.6870    -1.9763 N.am    
  14 O14            2.3645    -4.2370    -3.3621 O.2     
  15 C15            1.0254    -3.1647     1.2433 C.ar    
  16 C16           -0.1060    -3.5230     1.9550 C.ar    
  17 C17           -1.0742    -4.3091     1.3581 C.ar    
  18 C18           -0.9176    -4.7380     0.0562 C.ar    
  19 O19            4.0248     1.8792    -1.7567 O.3     
  20 C20            3.1884     2.8463    -2.3949 C.3     
  21 C21            3.5764     4.2862    -1.9667 C.3     
  22 C22            3.1200     5.1392    -3.1691 C.3     
  23 N23            3.0455     4.2461    -4.3346 N.am    
  24 C24            3.4565     2.8924    -3.9199 C.3     
  25 C25            2.6637     4.6052    -5.5762 C.2     
  26 O26            2.3093     5.8792    -5.8295 O.3     
  27 O27            2.6393     3.7793    -6.4671 O.2     
  28 C28            1.9092     6.1942    -7.1892 C.3     
  29 C29            0.6953     5.3457    -7.5732 C.3     
  30 C30            1.5450     7.6773    -7.2830 C.3     
  31 C31            3.0656     5.8916    -8.1442 C.3     
  32 C32           -0.2020    -5.5048    -2.8913 C.3     
  33 C33           -1.6665    -5.2633    -2.6306 C.ar    
  34 C34            0.1233    -5.1307    -4.3144 C.ar    
  35 C35            0.4374    -6.1147    -5.2331 C.ar    
  36 C36            0.1020    -3.8041    -4.7025 C.ar    
  37 C37            0.4004    -3.4610    -6.0079 C.ar    
  38 C38            0.7204    -4.4444    -6.9251 C.ar    
  39 C39            0.7358    -5.7715    -6.5385 C.ar    
  40 C40           -2.5347    -6.3334    -2.5213 C.ar    
  41 C41           -2.1407    -3.9719    -2.4952 C.ar    
  42 C42           -3.4841    -3.7504    -2.2560 C.ar    
  43 C43           -4.3533    -4.8203    -2.1528 C.ar    
  44 C44           -3.8781    -6.1119    -2.2822 C.ar    
  45 H45            1.7551     1.0420    -2.7608 H       
  46 H46            0.8587    -1.2397    -2.5281 H       
  47 H47            5.1824    -0.0743    -0.4686 H       
  48 H48            4.1929    -4.3299    -1.4203 H       
  49 H49            3.5011    -4.6205     0.2104 H       
  50 H50            1.7830    -2.5510     1.7079 H       
  51 H51           -0.2323    -3.1897     2.9745 H       
  52 H52           -1.9570    -4.5890     1.9136 H       
  53 H53           -1.6781    -5.3519    -0.4033 H       
  54 H54            2.1368     2.6472    -2.1883 H       
  55 H55            3.0416     4.5770    -1.0625 H       
  56 H56            4.6536     4.3685    -1.8222 H       
  57 H57            2.1386     5.5686    -2.9677 H       
  58 H58            3.8431     5.9331    -3.3561 H       
  59 H59            4.5162     2.7386    -4.1235 H       
  60 H60            2.8577     2.1401    -4.4333 H       
  61 H61           -0.1286     5.5613    -6.8929 H       
  62 H62            0.3949     5.5822    -8.5940 H       
  63 H63            0.9547     4.2892    -7.5064 H       
  64 H64            2.4098     8.2818    -7.0095 H       
  65 H65            1.2447     7.9138    -8.3038 H       
  66 H66            0.7212     7.8929    -6.6027 H       
  67 H67            3.3250     4.8351    -8.0774 H       
  68 H68            2.7652     6.1281    -9.1650 H       
  69 H69            3.9304     6.4961    -7.8706 H       
  70 H70            0.0266    -6.5585    -2.7312 H       
  71 H71            0.4500    -7.1515    -4.9309 H       
  72 H72           -0.1481    -3.0358    -3.9858 H       
  73 H73            0.3830    -2.4246    -6.3113 H       
  74 H74            0.9532    -4.1764    -7.9451 H       
  75 H75            0.9859    -6.5399    -7.2552 H       
  76 H76           -2.1636    -7.3425    -2.6230 H       
  77 H77           -1.4616    -3.1361    -2.5758 H       
  78 H78           -3.8544    -2.7415    -2.1495 H       
  79 H79           -5.4028    -4.6472    -1.9656 H       
  80 H80           -4.5572    -6.9478    -2.2015 H       
@<TRIPOS>BOND
   1    1    2 ar
   2    1    6 ar
   3    1   45 1
   4    2    3 ar
   5    2   46 1
   6    3    4 ar
   7    3    8 1
   8    4    5 ar
   9    4    7 1
  10    5    6 ar
  11    5   47 1
  12    6   19 1
  13    7    9 1
  14    8    9 1
  15    8   11 1
  16    8   12 1
  17    9   48 1
  18    9   49 1
  19   10   11 ar
  20   10   13 1
  21   10   18 ar
  22   11   15 ar
  23   12   13 am
  24   12   14 2
  25   13   32 1
  26   15   16 ar
  27   15   50 1
  28   16   17 ar
  29   16   51 1
  30   17   18 ar
  31   17   52 1
  32   18   53 1
  33   19   20 1
  34   20   21 1
  35   20   24 1
  36   20   54 1
  37   21   22 1
  38   21   55 1
  39   21   56 1
  40   22   23 1
  41   22   57 1
  42   22   58 1
  43   23   24 1
  44   23   25 am
  45   24   59 1
  46   24   60 1
  47   25   26 1
  48   25   27 2
  49   26   28 1
  50   28   29 1
  51   28   30 1
  52   28   31 1
  53   29   61 1
  54   29   62 1
  55   29   63 1
  56   30   64 1
  57   30   65 1
  58   30   66 1
  59   31   67 1
  60   31   68 1
  61   31   69 1
  62   32   33 1
  63   32   34 1
  64   32   70 1
  65   33   40 ar
  66   33   41 ar
  67   34   35 ar
  68   34   36 ar
  69   35   39 ar
  70   35   71 1
  71   36   37 ar
  72   36   72 1
  73   37   38 ar
  74   37   73 1
  75   38   39 ar
  76   38   74 1
  77   39   75 1
  78   40   44 ar
  79   40   76 1
  80   41   42 ar
  81   41   77 1
  82   42   43 ar
  83   42   78 1
  84   43   44 ar
  85   43   79 1
  86   44   80 1

#	End of record

