#	Name: ASD01901054
#	Creating user name:	WinNT
#	Creation time:	15. 06. 2019 19:53

#	Modifying user name:	WinNT
#	Modification time:	15. 06. 2019 19:53

#	Program:	/corina/corina34_cracker 3.40 0067  02.08.2006

@<TRIPOS>MOLECULE
ASD01901054
  40   42    0    0    0
SMALL
NO_CHARGES


@<TRIPOS>ATOM
   1 C1             0.6934     2.7827     1.2156 C.ar    
   2 C2             1.7305     3.1844     2.0534 C.ar    
   3 C3             2.8964     2.4348     2.0910 C.ar    
   4 C4             2.9850     1.3089     1.2892 C.ar    
   5 C5             1.9118     0.9659     0.4770 C.ar    
   6 N6             0.8162     1.6966     0.4614 N.ar    
   7 C7            -0.5603     3.5702     1.1698 C.2     
   8 O8            -0.6803     4.5623     1.8614 O.2     
   9 N9            -1.5679     3.1867     0.3610 N.am    
  10 F10            1.9929    -0.1313    -0.3071 F       
  11 C11           -2.7857     3.8733     0.3875 C.ar    
  12 C12           -2.8057     5.2477     0.5870 C.ar    
  13 C13           -4.0102     5.9229     0.6122 C.ar    
  14 C14           -5.1955     5.2320     0.4392 C.ar    
  15 C15           -5.1792     3.8636     0.2408 C.ar    
  16 C16           -3.9778     3.1832     0.2088 C.ar    
  17 S17           -6.7301     6.0973     0.4721 S.o2    
  18 O18           -7.7218     5.1421     0.8234 O.2     
  19 O19           -6.5028     7.2894     1.2112 O.2     
  20 N20           -7.0619     6.5661    -1.0811 N.am    
  21 C21           -7.2081     5.6049    -2.0850 C.ar    
  22 C22           -6.7583     5.8693    -3.3737 C.ar    
  23 C23           -6.9047     4.9165    -4.3635 C.ar    
  24 C24           -7.4979     3.7012    -4.0730 C.ar    
  25 C25           -7.9466     3.4358    -2.7926 C.ar    
  26 C26           -7.7979     4.3816    -1.7965 C.ar    
  27 Cl27          -6.0141     7.3946    -3.7387 Cl      
  28 H28            1.6283     4.0683     2.6655 H       
  29 H29            3.7173     2.7227     2.7310 H       
  30 H30            3.8797     0.7041     1.2953 H       
  31 H31           -1.4482     2.4344    -0.2396 H       
  32 H32           -1.8803     5.7878     0.7226 H       
  33 H33           -4.0264     6.9915     0.7676 H       
  34 H34           -6.1068     3.3269     0.1064 H       
  35 H35           -3.9654     2.1152     0.0490 H       
  36 H36           -7.1548     7.5078    -1.2941 H       
  37 H37           -6.5559     5.1209    -5.3649 H       
  38 H38           -7.6112     2.9581    -4.8484 H       
  39 H39           -8.4097     2.4860    -2.5695 H       
  40 H40           -8.1444     4.1713    -0.7954 H       
@<TRIPOS>BOND
   1    1    2 ar
   2    1    6 ar
   3    1    7 1
   4    2    3 ar
   5    2   28 1
   6    3    4 ar
   7    3   29 1
   8    4    5 ar
   9    4   30 1
  10    5    6 ar
  11    5   10 1
  12    7    8 2
  13    7    9 am
  14    9   11 1
  15    9   31 1
  16   11   12 ar
  17   11   16 ar
  18   12   13 ar
  19   12   32 1
  20   13   14 ar
  21   13   33 1
  22   14   15 ar
  23   14   17 1
  24   15   16 ar
  25   15   34 1
  26   16   35 1
  27   17   18 2
  28   17   19 2
  29   17   20 am
  30   20   21 1
  31   20   36 1
  32   21   22 ar
  33   21   26 ar
  34   22   23 ar
  35   22   27 1
  36   23   24 ar
  37   23   37 1
  38   24   25 ar
  39   24   38 1
  40   25   26 ar
  41   25   39 1
  42   26   40 1

#	End of record

