#	Name: ASD01814586
#	Creating user name:	WinNT
#	Creation time:	15. 06. 2019 19:32

#	Modifying user name:	WinNT
#	Modification time:	15. 06. 2019 19:32

#	Program:	/corina/corina34_cracker 3.40 0067  02.08.2006

@<TRIPOS>MOLECULE
ASD01814586
  57   61    0    0    0
SMALL
NO_CHARGES


@<TRIPOS>ATOM
   1 C1             0.5358     0.2507     3.2068 C.2     
   2 N2            -0.5666     0.2647     4.0217 N.pl3   
   3 N3            -1.3573    -0.8385     3.6841 N.2     
   4 C4            -0.7705    -1.5012     2.7078 C.2     
   5 C5             0.4113    -0.8587     2.3788 C.2     
   6 C6            -0.9268    -2.7110     1.8197 C.3     
   7 N7             0.2362    -2.7639     0.9285 N.am    
   8 C8             1.0819    -1.6125     1.2593 C.3     
   9 C9            -0.7125     1.2569     4.9490 C.2     
  10 C10            0.2426     2.2147     5.0458 C.2     
  11 C11            1.3567     2.1662     4.1938 C.2     
  12 N12            1.4708     1.2046     3.3082 N.2     
  13 C13            0.4800    -3.6924    -0.0175 C.2     
  14 C14           -0.4159    -4.8563    -0.1570 C.ar    
  15 O15            1.4383    -3.5709    -0.7559 O.2     
  16 C16            0.1186    -6.1449    -0.2936 C.ar    
  17 C17           -0.7329    -7.2316    -0.4241 C.ar    
  18 C18           -2.1010    -7.0435    -0.4193 C.ar    
  19 C19           -2.6330    -5.7718    -0.2850 C.ar    
  20 C20           -1.8015    -4.6811    -0.1480 C.ar    
  21 O21            1.4627    -6.3281    -0.2986 O.3     
  22 C22            1.9335    -7.6770    -0.3269 C.3     
  23 C23            2.0220    -8.1578    -1.7779 C.3     
  24 C24            3.3235    -7.7473     0.3115 C.3     
  25 C25            3.8479    -9.1823     0.2236 C.3     
  26 N26            3.9147    -9.5950    -1.1842 N.3     
  27 C27            2.5842    -9.5809    -1.8053 C.3     
  28 C28            4.5433   -10.9161    -1.3162 C.3     
  29 Cl29           0.0881     3.4903     6.2131 Cl      
  30 C30            2.4237     3.2259     4.2926 C.3     
  31 C31           -1.9186     1.2870     5.8520 C.3     
  32 H32           -0.9665    -3.6139     2.4291 H       
  33 H33           -1.8396    -2.6215     1.2308 H       
  34 H34            1.1840    -0.9659     0.3877 H       
  35 H35            2.0643    -1.9568     1.5822 H       
  36 H36           -0.3256    -8.2262    -0.5299 H       
  37 H37           -2.7600    -7.8931    -0.5212 H       
  38 H38           -3.7042    -5.6347    -0.2831 H       
  39 H39           -2.2208    -3.6918    -0.0387 H       
  40 H40            1.2452    -8.3148     0.2278 H       
  41 H41            1.0279    -8.1505    -2.2250 H       
  42 H42            2.6798    -7.4958    -2.3411 H       
  43 H43            4.0018    -7.0789    -0.2188 H       
  44 H44            3.2593    -7.4468     1.3573 H       
  45 H45            4.8435    -9.2329     0.6645 H       
  46 H46            3.1765    -9.8482     0.7658 H       
  47 H47            1.9187   -10.2449    -1.2536 H       
  48 H48            2.6618    -9.9209    -2.8380 H       
  49 H49            3.9604   -11.6528    -0.7633 H       
  50 H50            4.5801   -11.1974    -2.3686 H       
  51 H51            5.5560   -10.8784    -0.9146 H       
  52 H52            3.1841     2.9104     5.0069 H       
  53 H53            2.8823     3.3720     3.3146 H       
  54 H54            1.9764     4.1617     4.6276 H       
  55 H55           -1.7067     0.7228     6.7602 H       
  56 H56           -2.1522     2.3194     6.1119 H       
  57 H57           -2.7692     0.8405     5.3371 H       
@<TRIPOS>BOND
   1    1    5 2
   2    1   12 1
   3    1    2 1
   4    2    3 1
   5    2    9 1
   6    3    4 2
   7    4    6 1
   8    4    5 1
   9    5    8 1
  10    6    7 1
  11    6   32 1
  12    6   33 1
  13    7    8 1
  14    7   13 am
  15    8   34 1
  16    8   35 1
  17    9   10 2
  18    9   31 1
  19   10   11 1
  20   10   29 1
  21   11   12 2
  22   11   30 1
  23   13   14 1
  24   13   15 2
  25   14   16 ar
  26   14   20 ar
  27   16   17 ar
  28   16   21 1
  29   17   18 ar
  30   17   36 1
  31   18   19 ar
  32   18   37 1
  33   19   20 ar
  34   19   38 1
  35   20   39 1
  36   21   22 1
  37   22   24 1
  38   22   23 1
  39   22   40 1
  40   23   27 1
  41   23   41 1
  42   23   42 1
  43   24   25 1
  44   24   43 1
  45   24   44 1
  46   25   26 1
  47   25   45 1
  48   25   46 1
  49   26   27 1
  50   26   28 1
  51   27   47 1
  52   27   48 1
  53   28   49 1
  54   28   50 1
  55   28   51 1
  56   30   52 1
  57   30   53 1
  58   30   54 1
  59   31   55 1
  60   31   56 1
  61   31   57 1

#	End of record

