#	Name: ASD02038231
#	Creating user name:	WinNT
#	Creation time:	15. 06. 2019 20:16

#	Modifying user name:	WinNT
#	Modification time:	15. 06. 2019 20:16

#	Program:	/corina/corina34_cracker 3.40 0067  02.08.2006

@<TRIPOS>MOLECULE
ASD02038231
  55   58    0    0    0
SMALL
NO_CHARGES


@<TRIPOS>ATOM
   1 C1            -0.3142     1.5246     0.2412 C.3     
   2 C2            -0.2658    -0.0046     0.2023 C.3     
   3 N3             0.7039    -0.4868     1.1957 N.3     
   4 C4             0.7243    -1.9550     1.2419 C.3     
   5 C5             1.3993    -2.4152     2.5355 C.3     
   6 O6             2.7828    -2.0590     2.5037 O.3     
   7 C7             1.2666    -3.9337     2.6677 C.3     
   8 O8             1.7932    -4.3499     3.9292 O.3     
   9 C9             1.7514    -5.6802     4.2071 C.ar    
  10 C10            2.2453    -6.1562     5.4141 C.ar    
  11 C11            1.2097    -6.5672     3.2880 C.ar    
  12 C12            1.1646    -7.9171     3.5666 C.ar    
  13 C13            1.6634    -8.4007     4.7746 C.ar    
  14 C14            2.1997    -7.5042     5.6898 C.ar    
  15 C15            2.0443     0.0502     0.9228 C.3     
  16 C16            1.9959     1.5794     0.9617 C.3     
  17 N17            1.0262     2.0617    -0.0317 N.3     
  18 C18            1.0068     3.4583    -0.0756 C.ar    
  19 C19            0.7575     4.1873     1.0801 C.ar    
  20 C20            0.7389     5.5675     1.0338 C.ar    
  21 C21            0.9683     6.2241    -0.1625 C.ar    
  22 C22            1.2164     5.5003    -1.3155 C.ar    
  23 C23            1.2424     4.1201    -1.2738 C.ar    
  24 N24            1.7295    -9.7023     5.2787 N.am    
  25 C25            2.2911    -9.7466     6.4986 C.2     
  26 C26            2.6474    -8.3249     6.8774 C.3     
  27 O27            2.4752   -10.7390     7.1712 O.2     
  28 Cl28           0.9441     7.9591    -0.2171 Cl      
  29 C29           -1.6511    -0.5675     0.5262 C.3     
  30 H30           -1.0114     1.8858    -0.5148 H       
  31 H31           -0.6438     1.8531     1.2269 H       
  32 H32            0.0376    -0.3337    -0.7915 H       
  33 H33           -0.2973    -2.3337     1.2105 H       
  34 H34            1.2802    -2.3377     0.3859 H       
  35 H35            0.9194    -1.9330     3.3872 H       
  36 H36            3.2737    -2.4533     1.7698 H       
  37 H37            0.2151    -4.2136     2.6027 H       
  38 H38            1.8218    -4.4182     1.8645 H       
  39 H39            2.6648    -5.4703     6.1352 H       
  40 H40            0.8211    -6.1987     2.3501 H       
  41 H41            0.7411    -8.6015     2.8464 H       
  42 H42            2.7416    -0.3109     1.6788 H       
  43 H43            2.3739    -0.2783    -0.0628 H       
  44 H44            1.6925     1.9085     1.9556 H       
  45 H45            2.9828     1.9805     0.7310 H       
  46 H46            0.5781     3.6754     2.0140 H       
  47 H47            0.5448     6.1349     1.9320 H       
  48 H48            1.3944     6.0153    -2.2480 H       
  49 H49            1.4365     3.5557    -2.1739 H       
  50 H50            1.4068   -10.4837     4.8031 H       
  51 H51            3.7229    -8.2272     7.0250 H       
  52 H52            2.1088    -8.0228     7.7756 H       
  53 H53           -2.3705    -0.2081    -0.2097 H       
  54 H54           -1.6163    -1.6566     0.4984 H       
  55 H55           -1.9535    -0.2389     1.5205 H       
@<TRIPOS>BOND
   1    1    2 1
   2    1   17 1
   3    1   30 1
   4    1   31 1
   5    2    3 1
   6    2   29 1
   7    2   32 1
   8    3    4 1
   9    3   15 1
  10    4    5 1
  11    4   33 1
  12    4   34 1
  13    5    6 1
  14    5    7 1
  15    5   35 1
  16    6   36 1
  17    7    8 1
  18    7   37 1
  19    7   38 1
  20    8    9 1
  21    9   10 ar
  22    9   11 ar
  23   10   14 ar
  24   10   39 1
  25   11   12 ar
  26   11   40 1
  27   12   13 ar
  28   12   41 1
  29   13   14 ar
  30   13   24 1
  31   14   26 1
  32   15   16 1
  33   15   42 1
  34   15   43 1
  35   16   17 1
  36   16   44 1
  37   16   45 1
  38   17   18 1
  39   18   19 ar
  40   18   23 ar
  41   19   20 ar
  42   19   46 1
  43   20   21 ar
  44   20   47 1
  45   21   22 ar
  46   21   28 1
  47   22   23 ar
  48   22   48 1
  49   23   49 1
  50   24   25 am
  51   24   50 1
  52   25   26 1
  53   25   27 2
  54   26   51 1
  55   26   52 1
  56   29   53 1
  57   29   54 1
  58   29   55 1

#	End of record

