#	Name: ASD07300746
#	Creating user name:	WinNT
#	Creation time:	15. 06. 2019 21:10

#	Modifying user name:	WinNT
#	Modification time:	15. 06. 2019 21:10

#	Program:	/corina/corina34_cracker 3.40 0067  02.08.2006

@<TRIPOS>MOLECULE
ASD07300746
  48   51    0    0    0
SMALL
NO_CHARGES


@<TRIPOS>ATOM
   1 C1            -0.0173     1.4128    -0.0101 C.2     
   2 C2             0.0021    -0.0041     0.0020 C.2     
   3 N3             1.1791     2.0868    -0.0173 N.pl3   
   4 N4             1.1570    -0.6393     0.0061 N.2     
   5 C5             2.3165     0.0268    -0.0010 C.2     
   6 C6             2.3502     1.3741    -0.0123 C.2     
   7 N7            -0.9986     2.3003    -0.0112 N.2     
   8 C8            -0.4892     3.5281    -0.0247 C.2     
   9 C9             0.8878     3.4245    -0.0279 C.2     
  10 N10           -1.1862    -0.7176     0.0100 N.pl3   
  11 C11           -1.1897    -2.1844    -0.1073 C.3     
  12 C12           -2.0524    -2.7577     1.0227 C.3     
  13 O13           -3.3302    -2.1168     1.0109 O.3     
  14 C14           -3.2811    -0.7089     1.2547 C.3     
  15 C15           -2.4810    -0.0312     0.1422 C.3     
  16 C16           -1.2785     4.8119    -0.0312 C.3     
  17 S17            1.7748     5.9716    -1.0567 S.3     
  18 C18            3.2190     6.5604    -0.3568 C.2     
  19 N19            3.6603     5.7324     0.5296 N.2     
  20 C20            2.9620     4.6369     0.7324 C.2     
  21 C21            1.8542     4.5358    -0.0384 C.2     
  22 C22            3.8836     7.8623    -0.7235 C.3     
  23 C23            4.8769     7.6247    -1.8627 C.3     
  24 C24            4.1184     7.1898    -3.1183 C.3     
  25 C25            5.6412     8.9184    -2.1511 C.3     
  26 H26            3.2444    -0.5258     0.0030 H       
  27 H27            3.2982     1.8914    -0.0182 H       
  28 H28           -1.6074    -2.4746    -1.0714 H       
  29 H29           -0.1711    -2.5622    -0.0194 H       
  30 H30           -2.1815    -3.8298     0.8742 H       
  31 H31           -1.5639    -2.5783     1.9805 H       
  32 H32           -4.2942    -0.3071     1.2730 H       
  33 H33           -2.7971    -0.5221     2.2133 H       
  34 H34           -2.3171     1.0163     0.3953 H       
  35 H35           -3.0310    -0.1008    -0.7963 H       
  36 H36           -1.4625     5.1304     0.9949 H       
  37 H37           -0.7138     5.5830    -0.5553 H       
  38 H38           -2.2301     4.6508    -0.5378 H       
  39 H39            3.2478     3.8831     1.4512 H       
  40 H40            3.1273     8.5786    -1.0443 H       
  41 H41            4.4131     8.2568     0.1438 H       
  42 H42            5.5805     6.8437    -1.5744 H       
  43 H43            4.8261     7.0205    -3.9299 H       
  44 H44            3.5740     6.2681    -2.9129 H       
  45 H45            3.4149     7.9708    -3.4066 H       
  46 H46            6.1815     9.2283    -1.2566 H       
  47 H47            6.3488     8.7492    -2.9627 H       
  48 H48            4.9376     9.6995    -2.4394 H       
@<TRIPOS>BOND
   1    1    2 1
   2    1    3 1
   3    1    7 2
   4    2    4 2
   5    2   10 1
   6    3    6 1
   7    3    9 1
   8    4    5 1
   9    5    6 2
  10    5   26 1
  11    6   27 1
  12    7    8 1
  13    8    9 2
  14    8   16 1
  15    9   21 1
  16   10   11 1
  17   10   15 1
  18   11   12 1
  19   11   28 1
  20   11   29 1
  21   12   13 1
  22   12   30 1
  23   12   31 1
  24   13   14 1
  25   14   15 1
  26   14   32 1
  27   14   33 1
  28   15   34 1
  29   15   35 1
  30   16   36 1
  31   16   37 1
  32   16   38 1
  33   17   18 1
  34   17   21 1
  35   18   19 2
  36   18   22 1
  37   19   20 1
  38   20   21 2
  39   20   39 1
  40   22   23 1
  41   22   40 1
  42   22   41 1
  43   23   24 1
  44   23   25 1
  45   23   42 1
  46   24   43 1
  47   24   44 1
  48   24   45 1
  49   25   46 1
  50   25   47 1
  51   25   48 1

#	End of record

