#	Name: ASD02350003
#	Creating user name:	WinNT
#	Creation time:	15. 06. 2019 20:20

#	Modifying user name:	WinNT
#	Modification time:	15. 06. 2019 20:20

#	Program:	/corina/corina34_cracker 3.40 0067  02.08.2006

@<TRIPOS>MOLECULE
ASD02350003
  92   96    0    0    0
SMALL
NO_CHARGES


@<TRIPOS>ATOM
   1 O1            -0.0161     1.3381     0.0094 O.3     
   2 O2             0.9665    -0.0387    -5.8104 O.3     
   3 O3            -4.0925    -0.6429     5.5410 O.3     
   4 O4            -9.8054     2.5543     2.1128 O.3     
   5 O5             1.0565    -0.5939    -0.0112 O.2     
   6 O6             0.3951     0.7576    -3.8298 O.2     
   7 O7            -5.2449    -2.4210     6.1686 O.2     
   8 O8           -11.4671     1.8519     0.8367 O.2     
   9 N9            -4.0940    -4.1132    -0.6450 N.pl3   
  10 N10           -4.9140    -2.5480    -3.3763 N.pl3   
  11 N11           -7.2284    -3.8933     0.4056 N.pl3   
  12 N12           -8.0388    -2.3380    -2.3262 N.pl3   
  13 C13           -2.9836    -3.4494    -1.0750 C.2     
  14 C14           -3.5965    -2.2782    -3.1524 C.2     
  15 C15           -6.4225    -3.9829     1.5016 C.2     
  16 C16           -2.5992    -3.2086    -2.5120 C.3     
  17 C17           -4.0932    -4.1308     0.7183 C.2     
  18 C18           -8.9085    -1.9192    -1.3636 C.2     
  19 C19           -5.1400    -4.7687     1.5943 C.3     
  20 C20           -8.2948    -3.1001     0.7097 C.2     
  21 C21           -5.4861    -1.4673    -3.9792 C.2     
  22 C22           -9.4284    -2.7486    -0.2181 C.3     
  23 C23           -7.8158    -1.3097    -3.1923 C.2     
  24 C24           -6.9261    -1.3524    -4.4072 C.3     
  25 C25           -2.2874    -3.0467     0.0075 C.2     
  26 C26           -3.3381    -1.0343    -3.6050 C.2     
  27 C27           -6.9717    -3.2480     2.4900 C.2     
  28 C28           -9.2274    -0.6329    -1.6144 C.2     
  29 C29           -2.9928    -3.4800     1.1476 C.2     
  30 C30           -8.1617    -2.6865     1.9865 C.2     
  31 C31           -4.5394    -0.5187    -4.1301 C.2     
  32 C32           -8.5329    -0.2456    -2.7766 C.2     
  33 C33           -0.9927    -2.2755    -0.0007 C.3     
  34 C34           -2.0088    -0.3260    -3.5573 C.3     
  35 C35           -6.4152    -3.0620     3.8780 C.3     
  36 C36          -10.1565     0.2307    -0.8008 C.3     
  37 C37           -2.5913    -3.2572     2.5830 C.3     
  38 C38           -9.1113    -1.7884     2.7367 C.3     
  39 C39           -4.7311     0.8426    -4.7475 C.3     
  40 C40           -8.5821     1.1091    -3.4349 C.3     
  41 C41           -1.2926    -0.7753     0.0102 C.3     
  42 C42           -1.2244    -0.6269    -4.8360 C.3     
  43 C43           -5.4904    -1.8432     3.8976 C.3     
  44 C44           -9.3588     0.9566     0.2843 C.3     
  45 C45            0.0021    -0.0041     0.0020 C.2     
  46 C46            0.1049     0.0815    -4.7882 C.2     
  47 C47           -4.9338    -1.6572     5.2856 C.2     
  48 C48          -10.2879     1.8203     1.0979 C.2     
  49 H49            0.8394     1.7888     0.0037 H       
  50 H50            1.8066     0.4342    -5.7344 H       
  51 H51           -3.7617    -0.5642     6.4462 H       
  52 H52          -10.4398     3.0925     2.6058 H       
  53 H53           -4.7745    -4.5047    -1.2148 H       
  54 H54           -5.3692    -3.3727    -3.1448 H       
  55 H55           -7.0690    -4.3225    -0.4495 H       
  56 H56           -7.6435    -3.2219    -2.3847 H       
  57 H57           -1.6066    -2.7599    -2.5520 H       
  58 H58           -2.5905    -4.1569    -3.0492 H       
  59 H59           -4.7931    -4.7769     2.6275 H       
  60 H60           -5.3164    -5.7920     1.2627 H       
  61 H61          -10.1814    -2.1808     0.3283 H       
  62 H62           -9.8760    -3.6634    -0.6066 H       
  63 H63           -7.0602    -0.4393    -4.9872 H       
  64 H64           -7.1917    -2.2132    -5.0210 H       
  65 H65           -0.4091    -2.5358     0.8824 H       
  66 H66           -0.4261    -2.5263    -0.8975 H       
  67 H67           -2.1725     0.7486    -3.4757 H       
  68 H68           -1.4426    -0.6739    -2.6933 H       
  69 H69           -7.2344    -2.9078     4.5803 H       
  70 H70           -5.8522    -3.9499     4.1657 H       
  71 H71          -10.6349     0.9629    -1.4513 H       
  72 H72          -10.9186    -0.3941    -0.3349 H       
  73 H73           -1.9682    -4.0860     2.9188 H       
  74 H74           -2.0310    -2.3256     2.6631 H       
  75 H75           -3.4844    -3.1987     3.2051 H       
  76 H76           -9.8647    -2.3950     3.2392 H       
  77 H77           -8.5571    -1.2109     3.4766 H       
  78 H78           -9.5989    -1.1097     2.0369 H       
  79 H79           -5.0154     1.5557    -3.9738 H       
  80 H80           -3.8000     1.1645    -5.2139 H       
  81 H81           -5.5167     0.7922    -5.5015 H       
  82 H82           -9.3868     1.1269    -4.1699 H       
  83 H83           -8.7629     1.8738    -2.6795 H       
  84 H84           -7.6320     1.3064    -3.9314 H       
  85 H85           -1.8762    -0.5150    -0.8728 H       
  86 H86           -1.8592    -0.5245     0.9070 H       
  87 H87           -1.0608    -1.7014    -4.9175 H       
  88 H88           -1.7907    -0.2790    -5.6999 H       
  89 H89           -4.6712    -1.9974     3.1953 H       
  90 H90           -6.0534    -0.9553     3.6098 H       
  91 H91           -8.8804     0.2244     0.9348 H       
  92 H92           -8.5967     1.5814    -0.1816 H       
@<TRIPOS>BOND
   1    1   45 1
   2    1   49 1
   3    2   46 1
   4    2   50 1
   5    3   47 1
   6    3   51 1
   7    4   48 1
   8    4   52 1
   9    5   45 2
  10    6   46 2
  11    7   47 2
  12    8   48 2
  13    9   13 1
  14    9   17 1
  15    9   53 1
  16   10   14 1
  17   10   21 1
  18   10   54 1
  19   11   15 1
  20   11   20 1
  21   11   55 1
  22   12   18 1
  23   12   23 1
  24   12   56 1
  25   13   16 1
  26   13   25 2
  27   14   16 1
  28   14   26 2
  29   15   19 1
  30   15   27 2
  31   16   57 1
  32   16   58 1
  33   17   19 1
  34   17   29 2
  35   18   22 1
  36   18   28 2
  37   19   59 1
  38   19   60 1
  39   20   22 1
  40   20   30 2
  41   21   24 1
  42   21   31 2
  43   22   61 1
  44   22   62 1
  45   23   24 1
  46   23   32 2
  47   24   63 1
  48   24   64 1
  49   25   29 1
  50   25   33 1
  51   26   31 1
  52   26   34 1
  53   27   30 1
  54   27   35 1
  55   28   32 1
  56   28   36 1
  57   29   37 1
  58   30   38 1
  59   31   39 1
  60   32   40 1
  61   33   41 1
  62   33   65 1
  63   33   66 1
  64   34   42 1
  65   34   67 1
  66   34   68 1
  67   35   43 1
  68   35   69 1
  69   35   70 1
  70   36   44 1
  71   36   71 1
  72   36   72 1
  73   37   73 1
  74   37   74 1
  75   37   75 1
  76   38   76 1
  77   38   77 1
  78   38   78 1
  79   39   79 1
  80   39   80 1
  81   39   81 1
  82   40   82 1
  83   40   83 1
  84   40   84 1
  85   41   45 1
  86   41   85 1
  87   41   86 1
  88   42   46 1
  89   42   87 1
  90   42   88 1
  91   43   47 1
  92   43   89 1
  93   43   90 1
  94   44   48 1
  95   44   91 1
  96   44   92 1

#	End of record

