#	Name: ASD01141112
#	Creating user name:	WinNT
#	Creation time:	15. 06. 2019 19:01

#	Modifying user name:	WinNT
#	Modification time:	15. 06. 2019 19:01

#	Program:	/corina/corina34_cracker 3.40 0067  02.08.2006

@<TRIPOS>MOLECULE
ASD01141112
  65   69    0    0    0
SMALL
NO_CHARGES


@<TRIPOS>ATOM
   1 C1            -0.3205     2.4170     0.5375 C.3     
   2 C2            -0.3520     0.8882     0.5953 C.3     
   3 C3            -1.0120     2.9880     1.7772 C.3     
   4 C4            -1.0505     2.8931    -0.7193 C.3     
   5 C5             0.3401     0.3154    -0.6429 C.3     
   6 C6             0.3749     0.4095     1.8535 C.3     
   7 H7            -1.3869     0.5472     0.6232 H       
   8 C8            -0.2839     2.5091     3.0346 C.3     
   9 C9            -1.0956     4.4169    -0.7504 C.3     
  10 C10           -0.3456     2.3237    -1.9601 C.3     
  11 H11           -2.0748     2.5211    -0.6940 H       
  12 C12           -0.3843     0.7959    -1.9021 C.3     
  13 C13           -0.3195     0.9805     3.0915 C.3     
  14 C14           -1.7412     4.9318    -2.0479 C.3     
  15 C15           -1.1016     2.8244    -3.1769 C.3     
  16 H16            0.6842     2.6793    -1.9943 H       
  17 H17            0.1087     0.3861    -2.7837 H       
  18 O18           -1.6765     0.5341     3.1251 O.3     
  19 C19           -0.9408     4.3686    -3.2049 C.3     
  20 C20           -0.5033     2.4394    -4.5360 C.3     
  21 H21           -2.1541     2.5480    -3.1133 H       
  22 C22            0.5351     4.7342    -3.0349 C.3     
  23 C23           -1.3866     4.7442    -4.5869 C.2     
  24 C24           -1.0564     3.5475    -5.4733 C.3     
  25 O25           -1.9019     5.7817    -4.9280 O.2     
  26 H26           -2.1786     0.8585     3.8852 H       
  27 C27            1.1318     2.8965     0.4966 C.3     
  28 O28            0.2362     4.9262    -0.6566 O.3     
  29 C29            1.7686     6.6394     0.0259 C.ar    
  30 C30            2.2975     7.3807    -1.0140 C.ar    
  31 C31            3.6180     7.7874    -0.9712 C.ar    
  32 C32            4.4094     7.4532     0.1118 C.ar    
  33 C33            3.8802     6.7125     1.1522 C.ar    
  34 C34            2.5601     6.3046     1.1087 C.ar    
  35 C35            0.3273     6.2013    -0.0179 C.3     
  36 H36           -0.9889     4.0770     1.7367 H       
  37 H37           -2.0471     2.6475     1.8050 H       
  38 H38            1.3761     0.6532    -0.6688 H       
  39 H39            0.3142    -0.7735    -0.6023 H       
  40 H40            0.3522    -0.6796     1.8940 H       
  41 H41            1.4097     0.7507     1.8274 H       
  42 H42            0.7512     2.8496     3.0071 H       
  43 H43           -0.7770     2.9162     3.9173 H       
  44 H44           -1.6738     4.7742     0.1018 H       
  45 H45           -1.4208     0.4594    -1.8758 H       
  46 H46            0.1977     0.6391     3.9882 H       
  47 H47           -2.7739     4.5885    -2.1097 H       
  48 H48           -1.7097     6.0211    -2.0708 H       
  49 H49            0.5858     2.4694    -4.5018 H       
  50 H50           -0.8549     1.4564    -4.8492 H       
  51 H51            0.9512     4.1830    -2.1916 H       
  52 H52            1.0803     4.4756    -3.9426 H       
  53 H53            0.6252     5.8045    -2.8493 H       
  54 H54           -0.3018     3.8250    -6.2092 H       
  55 H55           -1.9572     3.1957    -5.9762 H       
  56 H56            1.5555     2.6888    -0.4859 H       
  57 H57            1.1658     3.9691     0.6876 H       
  58 H58            1.7088     2.3732     1.2591 H       
  59 H59            1.6792     7.6419    -1.8601 H       
  60 H60            4.0315     8.3661    -1.7840 H       
  61 H61            5.4412     7.7703     0.1449 H       
  62 H62            4.4987     6.4508     1.9979 H       
  63 H63            2.1468     5.7254     1.9211 H       
  64 H64           -0.2573     6.9309    -0.5781 H       
  65 H65           -0.0610     6.1274     0.9979 H       
@<TRIPOS>BOND
   1    1    2 1
   2    1   27 1
   3    1    3 1
   4    1    4 1
   5    2    5 1
   6    2    6 1
   7    2    7 1
   8    3    8 1
   9    3   36 1
  10    3   37 1
  11    4   10 1
  12    4   11 1
  13    4    9 1
  14    5   12 1
  15    5   38 1
  16    5   39 1
  17    6   13 1
  18    6   40 1
  19    6   41 1
  20    8   13 1
  21    8   42 1
  22    8   43 1
  23    9   14 1
  24    9   28 1
  25    9   44 1
  26   10   15 1
  27   10   16 1
  28   10   12 1
  29   12   17 1
  30   12   45 1
  31   13   18 1
  32   13   46 1
  33   14   19 1
  34   14   47 1
  35   14   48 1
  36   15   19 1
  37   15   20 1
  38   15   21 1
  39   18   26 1
  40   19   22 1
  41   19   23 1
  42   20   24 1
  43   20   49 1
  44   20   50 1
  45   22   51 1
  46   22   52 1
  47   22   53 1
  48   23   24 1
  49   23   25 2
  50   24   54 1
  51   24   55 1
  52   27   56 1
  53   27   57 1
  54   27   58 1
  55   28   35 1
  56   29   30 ar
  57   29   34 ar
  58   29   35 1
  59   30   31 ar
  60   30   59 1
  61   31   32 ar
  62   31   60 1
  63   32   33 ar
  64   32   61 1
  65   33   34 ar
  66   33   62 1
  67   34   63 1
  68   35   64 1
  69   35   65 1

#	End of record

