#	Name: ASD01900433
#	Creating user name:	WinNT
#	Creation time:	15. 06. 2019 19:51

#	Modifying user name:	WinNT
#	Modification time:	15. 06. 2019 19:51

#	Program:	/corina/corina34_cracker 3.40 0067  02.08.2006

@<TRIPOS>MOLECULE
ASD01900433
  35   38    0    0    0
SMALL
NO_CHARGES


@<TRIPOS>ATOM
   1 C1             0.4017     3.6437     0.7169 C.ar    
   2 C2             0.8700     4.5663     1.6718 C.ar    
   3 C3             2.2448     4.7303     1.8372 C.ar    
   4 C4             3.0922     3.9746     1.0511 C.ar    
   5 C5             2.5605     3.0829     0.1286 C.ar    
   6 N6             1.2626     2.9407    -0.0152 N.ar    
   7 N7            -1.3856     4.5786     1.6920 N.2     
   8 N8            -0.2319     5.1296     2.2592 N.pl3   
   9 C9            -1.0607     3.7044     0.7769 C.2     
  10 N10           -1.9495     2.9548     0.0002 N.pl3   
  11 C11           -3.3281     3.1588     0.1217 C.ar    
  12 C12           -3.8208     4.4265     0.4049 C.ar    
  13 C13           -5.1824     4.6269     0.5243 C.ar    
  14 C14           -6.0579     3.5614     0.3613 C.ar    
  15 C15           -5.5661     2.2960     0.0786 C.ar    
  16 C16           -4.2052     2.0952    -0.0462 C.ar    
  17 O17           -7.3983     3.7589     0.4793 O.3     
  18 C18           -8.0739     4.2090    -0.6076 C.ar    
  19 C19           -9.4336     4.4900    -0.5164 C.ar    
  20 N20           -7.4392     4.3873    -1.7573 N.ar    
  21 N21          -10.0876     4.9276    -1.5757 N.ar    
  22 C22           -9.4521     5.0991    -2.7227 C.ar    
  23 C23           -8.1005     4.8261    -2.8149 C.ar    
  24 Cl24          -5.7989     6.2106     0.8786 Cl      
  25 H25            2.6366     5.4299     2.5607 H       
  26 H26            4.1626     4.0767     1.1529 H       
  27 H27            3.2280     2.4948    -0.4838 H       
  28 H28           -0.2148     5.8029     2.9572 H       
  29 H29           -1.6102     2.2934    -0.6230 H       
  30 H30           -3.1396     5.2549     0.5319 H       
  31 H31           -6.2477     1.4679    -0.0480 H       
  32 H32           -3.8230     1.1104    -0.2707 H       
  33 H33           -9.9531     4.3497     0.4200 H       
  34 H34           -9.9897     5.4570    -3.5883 H       
  35 H35           -7.5836     4.9715    -3.7520 H       
@<TRIPOS>BOND
   1    1    2 ar
   2    1    6 ar
   3    1    9 1
   4    2    3 ar
   5    2    8 1
   6    3    4 ar
   7    3   25 1
   8    4    5 ar
   9    4   26 1
  10    5    6 ar
  11    5   27 1
  12    7    8 1
  13    7    9 2
  14    8   28 1
  15    9   10 1
  16   10   11 1
  17   10   29 1
  18   11   12 ar
  19   11   16 ar
  20   12   13 ar
  21   12   30 1
  22   13   14 ar
  23   13   24 1
  24   14   15 ar
  25   14   17 1
  26   15   16 ar
  27   15   31 1
  28   16   32 1
  29   17   18 1
  30   18   19 ar
  31   18   20 ar
  32   19   21 ar
  33   19   33 1
  34   20   23 ar
  35   21   22 ar
  36   22   23 ar
  37   22   34 1
  38   23   35 1

#	End of record

