#	Name: ASD02160005
#	Creating user name:	WinNT
#	Creation time:	15. 06. 2019 20:18

#	Modifying user name:	WinNT
#	Modification time:	15. 06. 2019 20:18

#	Program:	/corina/corina34_cracker 3.40 0067  02.08.2006

@<TRIPOS>MOLECULE
ASD02160005
  55   57    0    0    0
SMALL
NO_CHARGES


@<TRIPOS>ATOM
   1 C1             0.0360     1.5768    -0.0087 C.3     
   2 C2            -0.0417     0.0765     0.0062 C.2     
   3 C3             1.0211    -0.6835    -0.3098 C.2     
   4 N4             2.2162    -0.1105    -0.6492 N.pl3   
   5 C5             2.4688     1.1970    -0.3349 C.2     
   6 C6             1.4666     2.0353    -0.0201 C.2     
   7 C7             0.8948    -2.1851    -0.2894 C.3     
   8 C8             3.8882     1.7031    -0.3409 C.3     
   9 C9             1.7654     3.3781     0.3079 C.2     
  10 O10            2.9196     3.7634     0.3027 O.2     
  11 O11            0.7704     4.2322     0.6267 O.3     
  12 C12            1.1446     5.5736     0.9473 C.3     
  13 C13           -0.0891     6.3748     1.2743 C.ar    
  14 C14           -0.6619     2.0976    -1.2386 C.ar    
  15 C15           -1.2591    -0.5497     0.3607 C.2     
  16 O16           -2.0761    -1.0293    -0.6004 O.3     
  17 O17           -1.5699    -0.6561     1.5324 O.2     
  18 C18           -3.2894    -1.6496    -0.1703 C.3     
  19 C19           -0.7720     7.0464     0.2777 C.ar    
  20 C20           -0.5568     6.4430     2.5775 C.ar    
  21 C21           -1.6957     7.1922     2.8317 C.ar    
  22 C22           -2.3221     7.8413     1.7850 C.ar    
  23 N23           -1.8519     7.7498     0.5562 N.ar    
  24 C24           -1.9419     3.0536    -3.4950 C.ar    
  25 C25           -0.8640     2.1975    -3.6223 C.ar    
  26 C26           -0.2238     1.7198    -2.4940 C.ar    
  27 C27           -1.7437     2.9488    -1.1112 C.ar    
  28 C28           -2.3838     3.4266    -2.2394 C.ar    
  29 N29           -2.6274     3.5651    -4.7030 N.pl3   
  30 O30           -2.2417     3.2318    -5.8092 O.2     
  31 O31           -3.5771     4.3194    -4.5909 O.2     
  32 C32           -4.0785    -2.1273    -1.3910 C.3     
  33 H33           -0.4600     1.9707     0.8785 H       
  34 H34            2.8876    -0.6336    -1.1145 H       
  35 H35            0.4899    -2.5286    -1.2413 H       
  36 H36            1.8770    -2.6302    -0.1304 H       
  37 H37            0.2261    -2.4825     0.5184 H       
  38 H38            4.5621     0.8918    -0.6162 H       
  39 H39            3.9818     2.5140    -1.0633 H       
  40 H40            4.1475     2.0696     0.6523 H       
  41 H41            1.8132     5.5683     1.8082 H       
  42 H42            1.6539     6.0224     0.0945 H       
  43 H43           -3.0555    -2.5021     0.4674 H       
  44 H44           -3.8868    -0.9301     0.3896 H       
  45 H45           -0.4167     6.9946    -0.7409 H       
  46 H46           -0.0464     5.9247     3.3759 H       
  47 H47           -2.0882     7.2672     3.8350 H       
  48 H48           -3.2096     8.4268     1.9746 H       
  49 H49           -0.5187     1.9061    -4.6032 H       
  50 H50            0.6188     1.0516    -2.5935 H       
  51 H51           -2.0889     3.2402    -0.1303 H       
  52 H52           -3.2259     4.0954    -2.1400 H       
  53 H53           -4.3125    -1.2748    -2.0287 H       
  54 H54           -3.4812    -2.8468    -1.9510 H       
  55 H55           -5.0041    -2.6005    -1.0630 H       
@<TRIPOS>BOND
   1    1    2 1
   2    1    6 1
   3    1   14 1
   4    1   33 1
   5    2    3 2
   6    2   15 1
   7    3    4 1
   8    3    7 1
   9    4    5 1
  10    4   34 1
  11    5    6 2
  12    5    8 1
  13    6    9 1
  14    7   35 1
  15    7   36 1
  16    7   37 1
  17    8   38 1
  18    8   39 1
  19    8   40 1
  20    9   10 2
  21    9   11 1
  22   11   12 1
  23   12   13 1
  24   12   41 1
  25   12   42 1
  26   13   20 ar
  27   13   19 ar
  28   14   27 ar
  29   14   26 ar
  30   15   16 1
  31   15   17 2
  32   16   18 1
  33   18   32 1
  34   18   43 1
  35   18   44 1
  36   19   23 ar
  37   19   45 1
  38   20   21 ar
  39   20   46 1
  40   21   22 ar
  41   21   47 1
  42   22   23 ar
  43   22   48 1
  44   24   25 ar
  45   24   28 ar
  46   24   29 1
  47   25   26 ar
  48   25   49 1
  49   26   50 1
  50   27   28 ar
  51   27   51 1
  52   28   52 1
  53   29   30 2
  54   29   31 2
  55   32   53 1
  56   32   54 1
  57   32   55 1

#	End of record

