#	Name: ASD00069295
#	Creating user name:	WinNT
#	Creation time:	15. 06. 2019 18:29

#	Modifying user name:	WinNT
#	Modification time:	15. 06. 2019 18:29

#	Program:	/corina/corina34_cracker 3.40 0067  02.08.2006

@<TRIPOS>MOLECULE
ASD00069295
  55   57    0    0    0
SMALL
NO_CHARGES


@<TRIPOS>ATOM
   1 C1            -0.6801     1.0992     1.0440 C.2     
   2 N2            -0.2007     0.2482     0.1153 N.am    
   3 O3             0.0636     1.5452     1.9066 O.co2   
   4 O4            -1.8575     1.4294     1.0212 O.co2   
   5 C5             1.6418    -0.7750     1.3561 C.3     
   6 C6             1.2318    -0.0553     0.0697 C.3     
   7 C7             1.5246    -0.9543    -1.1331 C.3     
   8 N8             3.9124     2.8634    -1.5318 N.3     
   9 C9             4.3096     2.2323    -0.2667 C.3     
  10 C10            3.5237     0.9333    -0.0742 C.3     
  11 C11            2.0249     1.2464    -0.0614 C.3     
  12 C12            1.6466     1.9466    -1.3696 C.3     
  13 C13            2.4869     3.2162    -1.5245 C.3     
  14 C14            4.7045     3.9833    -1.8035 C.ar    
  15 C15            4.7276     5.0533    -0.9148 C.ar    
  16 C16            5.5124     6.1583    -1.1871 C.ar    
  17 C17            6.2731     6.2000    -2.3417 C.ar    
  18 C18            6.2517     5.1379    -3.2263 C.ar    
  19 C19            5.4739     4.0276    -2.9578 C.ar    
  20 N20            5.4568     2.8891    -3.9034 N.pl3   
  21 O21            6.1322     2.9284    -4.9162 O.2     
  22 O22            4.7672     1.9129    -3.6688 O.2     
  23 F23            3.9839     5.0129     0.2124 F       
  24 C24           -1.1122    -0.3734    -0.8486 C.3     
  25 C25           -1.3240     0.5593    -2.0132 C.ar    
  26 C26           -0.5802     0.4031    -3.1679 C.ar    
  27 C27           -0.7745     1.2587    -4.2362 C.ar    
  28 C28           -1.7127     2.2701    -4.1499 C.ar    
  29 C29           -2.4571     2.4258    -2.9956 C.ar    
  30 C30           -2.2660     1.5675    -1.9289 C.ar    
  31 H31            1.0767    -1.7024     1.4496 H       
  32 H32            2.7076    -1.0008     1.3222 H       
  33 H33            1.4332    -0.1345     2.2131 H       
  34 H34            1.3194    -0.4079    -2.0537 H       
  35 H35            2.5720    -1.2555    -1.1152 H       
  36 H36            0.8910    -1.8401    -1.0875 H       
  37 H37            5.3767     2.0110    -0.2906 H       
  38 H38            4.0980     2.9107     0.5598 H       
  39 H39            3.7455     0.2490    -0.8931 H       
  40 H40            3.8074     0.4732     0.8723 H       
  41 H41            1.7963     1.8988     0.7813 H       
  42 H42            1.8389     1.2782    -2.2089 H       
  43 H43            0.5892     2.2104    -1.3485 H       
  44 H44            2.2838     3.8900    -0.6921 H       
  45 H45            2.2301     3.7095    -2.4619 H       
  46 H46            5.5313     6.9897    -0.4981 H       
  47 H47            6.8849     7.0645    -2.5528 H       
  48 H48            6.8470     5.1742    -4.1267 H       
  49 H49           -0.6808    -1.3085    -1.2058 H       
  50 H50           -2.0686    -0.5753    -0.3663 H       
  51 H51            0.1528    -0.3871    -3.2353 H       
  52 H52           -0.1929     1.1371    -5.1381 H       
  53 H53           -1.8640     2.9390    -4.9843 H       
  54 H54           -3.1900     3.2162    -2.9280 H       
  55 H55           -2.8501     1.6868    -1.0284 H       
@<TRIPOS>BOND
   1    1    2 am
   2    1    3 ar
   3    1    4 ar
   4    2    6 1
   5    2   24 1
   6    5    6 1
   7    5   31 1
   8    5   32 1
   9    5   33 1
  10    6    7 1
  11    6   11 1
  12    7   34 1
  13    7   35 1
  14    7   36 1
  15    8    9 1
  16    8   13 1
  17    8   14 1
  18    9   10 1
  19    9   37 1
  20    9   38 1
  21   10   11 1
  22   10   39 1
  23   10   40 1
  24   11   12 1
  25   11   41 1
  26   12   13 1
  27   12   42 1
  28   12   43 1
  29   13   44 1
  30   13   45 1
  31   14   15 ar
  32   14   19 ar
  33   15   16 ar
  34   15   23 1
  35   16   17 ar
  36   16   46 1
  37   17   18 ar
  38   17   47 1
  39   18   19 ar
  40   18   48 1
  41   19   20 1
  42   20   21 2
  43   20   22 2
  44   24   25 1
  45   24   49 1
  46   24   50 1
  47   25   26 ar
  48   25   30 ar
  49   26   27 ar
  50   26   51 1
  51   27   28 ar
  52   27   52 1
  53   28   29 ar
  54   28   53 1
  55   29   30 ar
  56   29   54 1
  57   30   55 1

#	End of record

