#	Name: ASD01820173
#	Creating user name:	WinNT
#	Creation time:	15. 06. 2019 19:36

#	Modifying user name:	WinNT
#	Modification time:	15. 06. 2019 19:36

#	Program:	/corina/corina34_cracker 3.40 0067  02.08.2006

@<TRIPOS>MOLECULE
ASD01820173
  84   87    0    0    0
SMALL
NO_CHARGES


@<TRIPOS>ATOM
   1 C1            -0.0171     1.4063     0.0098 C.ar    
   2 C2             0.0021    -0.0041     0.0020 C.ar    
   3 C3            -1.4132    -0.4273     0.0137 C.2     
   4 N4            -2.1891     0.6715     0.0273 N.am    
   5 C5            -1.4432     1.7909     0.0314 C.2     
   6 C6            -3.6539     0.6515     0.0417 C.3     
   7 C7            -4.1496     0.6369     1.4892 C.3     
   8 C8            -5.6793     0.6160     1.5042 C.3     
   9 N9            -6.1552     0.6020     2.8939 N.4     
  10 C10           -7.6240     0.5820     2.9084 C.3     
  11 C11           -8.1196     0.5673     4.3558 C.3     
  12 C12           -9.6494     0.5465     4.3708 C.3     
  13 C13          -10.1451     0.5318     5.8182 C.3     
  14 C14          -11.6749     0.5110     5.8333 C.3     
  15 C15          -12.1705     0.4963     7.2807 C.3     
  16 N16          -13.6393     0.4764     7.2952 N.4     
  17 C17          -14.1152     0.4623     8.6849 C.3     
  18 C18          -15.6449     0.4415     8.6999 C.3     
  19 N19          -17.6054     0.4069    10.1617 N.am    
  20 O20           -1.8708     2.9277     0.0434 O.2     
  21 O21           -1.8098    -1.5753     0.0109 O.2     
  22 C22          -16.1406     0.4268    10.1473 C.3     
  23 C23          -18.3513    -0.7126    10.1631 C.2     
  24 C24          -19.7775    -0.3280    10.1793 C.ar    
  25 C25          -19.7966     1.0824    10.1871 C.ar    
  26 C26          -18.3813     1.5056    10.1811 C.2     
  27 C27          -20.9693    -1.0346    10.1877 C.ar    
  28 C28          -22.1760    -0.3490    10.2037 C.ar    
  29 C29          -22.1948     1.0382    10.2109 C.ar    
  30 C30          -21.0072     1.7563    10.2030 C.ar    
  31 O31          -17.9236    -1.8494    10.1525 O.2     
  32 O32          -17.9846     2.6536    10.1850 O.2     
  33 C33          -14.1520     1.6727     6.6141 C.3     
  34 C34          -14.1195    -0.7259     6.6009 C.3     
  35 C35           -5.6425    -0.5944     3.5750 C.3     
  36 C36           -5.6750     1.8042     3.5881 C.3     
  37 C37            1.1748     2.1130     0.0022 C.ar    
  38 C38            2.3814     1.4275    -0.0130 C.ar    
  39 C39            2.4003     0.0403    -0.0211 C.ar    
  40 C40            1.2127    -0.6780    -0.0132 C.ar    
  41 F41            3.5444     2.1150    -0.0204 F       
  42 F42            3.5815    -0.6152    -0.0363 F       
  43 F43          -23.3759     1.6937    10.2256 F       
  44 F44          -23.3389    -1.0365    10.2120 F       
  45 H45           -4.0344     1.5392    -0.4636 H       
  46 H46           -4.0102    -0.2405    -0.4734 H       
  47 H47           -3.7691    -0.2508     1.9945 H       
  48 H48           -3.7932     1.5289     2.0043 H       
  49 H49           -6.0598     1.5037     0.9989 H       
  50 H50           -6.0357    -0.2760     0.9891 H       
  51 H51           -8.0044     1.4697     2.4030 H       
  52 H52           -7.9803    -0.3101     2.3932 H       
  53 H53           -7.7392    -0.3204     4.8611 H       
  54 H54           -7.7633     1.4594     4.8709 H       
  55 H55          -10.0299     1.4342     3.8655 H       
  56 H56          -10.0057    -0.3456     3.8557 H       
  57 H57           -9.7646    -0.3559     6.3236 H       
  58 H58           -9.7888     1.4239     6.3334 H       
  59 H59          -12.0553     1.3987     5.3280 H       
  60 H60          -12.0312    -0.3811     5.3182 H       
  61 H61          -11.7901    -0.3913     7.7861 H       
  62 H62          -11.8142     1.3884     7.7958 H       
  63 H63          -13.7347    -0.4254     9.1902 H       
  64 H64          -13.7588     1.3544     9.2000 H       
  65 H65          -16.0254     1.3292     8.1946 H       
  66 H66          -16.0013    -0.4506     8.1848 H       
  67 H67          -15.7601    -0.4609    10.6527 H       
  68 H68          -15.7843     1.3189    10.6625 H       
  69 H69          -20.9594    -2.1146    10.1815 H       
  70 H70          -21.0265     2.8361    10.2090 H       
  71 H71          -13.7989     1.6832     5.5829 H       
  72 H72          -15.2418     1.6579     6.6248 H       
  73 H73          -13.7957     2.5648     7.1292 H       
  74 H74          -13.7391    -1.6136     7.1063 H       
  75 H75          -15.2093    -0.7407     6.6117 H       
  76 H76          -13.7664    -0.7155     5.5698 H       
  77 H77           -4.5527    -0.5796     3.5642 H       
  78 H78           -5.9956    -0.6048     4.6061 H       
  79 H79           -5.9988    -1.4865     3.0599 H       
  80 H80           -6.0555     2.6919     3.0828 H       
  81 H81           -6.0281     1.7938     4.6193 H       
  82 H82           -4.5852     1.8191     3.5774 H       
  83 H83            1.1648     3.1930     0.0077 H       
  84 H84            1.2321    -1.7578    -0.0191 H       
@<TRIPOS>BOND
   1    1    2 ar
   2    1   37 ar
   3    1    5 1
   4    2    3 1
   5    2   40 ar
   6    3    4 am
   7    3   21 2
   8    4    5 am
   9    4    6 1
  10    5   20 2
  11    6    7 1
  12    6   45 1
  13    6   46 1
  14    7    8 1
  15    7   47 1
  16    7   48 1
  17    8    9 1
  18    8   49 1
  19    8   50 1
  20    9   10 1
  21    9   35 1
  22    9   36 1
  23   10   11 1
  24   10   51 1
  25   10   52 1
  26   11   12 1
  27   11   53 1
  28   11   54 1
  29   12   13 1
  30   12   55 1
  31   12   56 1
  32   13   14 1
  33   13   57 1
  34   13   58 1
  35   14   15 1
  36   14   59 1
  37   14   60 1
  38   15   16 1
  39   15   61 1
  40   15   62 1
  41   16   17 1
  42   16   33 1
  43   16   34 1
  44   17   18 1
  45   17   63 1
  46   17   64 1
  47   18   22 1
  48   18   65 1
  49   18   66 1
  50   19   23 am
  51   19   22 1
  52   19   26 am
  53   22   67 1
  54   22   68 1
  55   23   24 1
  56   23   31 2
  57   24   25 ar
  58   24   27 ar
  59   25   26 1
  60   25   30 ar
  61   26   32 2
  62   27   28 ar
  63   27   69 1
  64   28   29 ar
  65   28   44 1
  66   29   30 ar
  67   29   43 1
  68   30   70 1
  69   33   71 1
  70   33   72 1
  71   33   73 1
  72   34   74 1
  73   34   75 1
  74   34   76 1
  75   35   77 1
  76   35   78 1
  77   35   79 1
  78   36   80 1
  79   36   81 1
  80   36   82 1
  81   37   38 ar
  82   37   83 1
  83   38   39 ar
  84   38   41 1
  85   39   40 ar
  86   39   42 1
  87   40   84 1

#	End of record

