#	Name: ASD00170760
#	Creating user name:	WinNT
#	Creation time:	15. 06. 2019 18:32

#	Modifying user name:	WinNT
#	Modification time:	15. 06. 2019 18:32

#	Program:	/corina/corina34_cracker 3.40 0067  02.08.2006

@<TRIPOS>MOLECULE
ASD00170760
  39   41    0    0    0
SMALL
NO_CHARGES


@<TRIPOS>ATOM
   1 C1            -0.0150     1.2130     0.0019 C.2     
   2 O2             0.6028     1.0969    -1.0411 O.2     
   3 C3             0.5323     0.6439     1.2531 C.ar    
   4 C4             1.6991    -0.1212     1.2235 C.ar    
   5 C5             2.2045    -0.6486     2.3938 C.ar    
   6 C6             1.5570    -0.4205     3.5952 C.ar    
   7 C7             0.3998     0.3371     3.6314 C.ar    
   8 C8            -0.1130     0.8746     2.4690 C.ar    
   9 H9             1.9565    -0.8359     4.5085 H       
  10 C10           -1.3710     3.2628     0.1343 C.2     
  11 C11           -1.2564     1.8990     0.0182 C.2     
  12 C12           -2.5462     1.2343    -0.0861 C.2     
  13 C13           -3.5740     2.0883    -0.0474 C.2     
  14 S14           -3.0065     3.7399     0.1183 S.3     
  15 C15           -2.7039    -0.2333    -0.2215 C.ar    
  16 C16           -3.5811    -0.9229     0.6145 C.ar    
  17 C17           -3.7238    -2.2893     0.4838 C.ar    
  18 C18           -2.9982    -2.9747    -0.4740 C.ar    
  19 C19           -2.1259    -2.2959    -1.3059 C.ar    
  20 C20           -1.9799    -0.9287    -1.1891 C.ar    
  21 C21           -1.3388    -3.0501    -2.3465 C.3     
  22 F22           -1.6581    -4.4104    -2.2775 F       
  23 F23           -1.6570    -2.5602    -3.6177 F       
  24 F24            0.0296    -2.8797    -2.1102 F       
  25 C25           -4.6715    -3.0362     1.3866 C.3     
  26 F26           -5.9390    -3.0824     0.7962 F       
  27 F27           -4.2003    -4.3389     1.5819 F       
  28 F28           -4.7551    -2.3807     2.6197 F       
  29 N29           -0.3046     4.1298     0.2539 N.pl3   
  30 H30            2.2052    -0.3002     0.2863 H       
  31 H31            3.1072    -1.2411     2.3722 H       
  32 H32           -0.1008     0.5114     4.5724 H       
  33 H33           -1.0141     1.4692     2.4991 H       
  34 H34           -4.6130     1.8004    -0.1102 H       
  35 H35           -4.1476    -0.3889     1.3631 H       
  36 H36           -3.1128    -4.0441    -0.5723 H       
  37 H37           -1.3022    -0.3991    -1.8423 H       
  38 H38            0.5970     3.7814     0.3351 H       
  39 H39           -0.4564     5.0878     0.2567 H       
@<TRIPOS>BOND
   1    1    2 2
   2    1    3 1
   3    1   11 1
   4    3    4 ar
   5    3    8 ar
   6    4    5 ar
   7    4   30 1
   8    5    6 ar
   9    5   31 1
  10    6    7 ar
  11    6    9 1
  12    7    8 ar
  13    7   32 1
  14    8   33 1
  15   10   11 2
  16   10   14 1
  17   10   29 1
  18   11   12 1
  19   12   13 2
  20   12   15 1
  21   13   14 1
  22   13   34 1
  23   15   16 ar
  24   15   20 ar
  25   16   17 ar
  26   16   35 1
  27   17   18 ar
  28   17   25 1
  29   18   19 ar
  30   18   36 1
  31   19   20 ar
  32   19   21 1
  33   20   37 1
  34   21   22 1
  35   21   23 1
  36   21   24 1
  37   25   26 1
  38   25   27 1
  39   25   28 1
  40   29   38 1
  41   29   39 1

#	End of record

