#	Name: ASD04230140
#	Creating user name:	WinNT
#	Creation time:	15. 06. 2019 20:48

#	Modifying user name:	WinNT
#	Modification time:	15. 06. 2019 20:48

#	Program:	/corina/corina34_cracker 3.40 0067  02.08.2006

@<TRIPOS>MOLECULE
ASD04230140
  46   50    0    0    0
SMALL
NO_CHARGES


@<TRIPOS>ATOM
   1 C1             1.5360     4.6862     1.7198 C.ar    
   2 C2             2.5439     5.3840     2.3696 C.ar    
   3 C3             3.8005     4.8590     2.4681 C.ar    
   4 C4             4.0825     3.6081     1.9003 C.ar    
   5 C5             3.0564     2.8818     1.2692 C.ar    
   6 C6             1.7832     3.4397     1.1726 C.ar    
   7 C7             5.3934     3.0678     1.9619 C.2     
   8 C8             5.6628     1.9284     1.2155 C.2     
   9 C9             4.5671     1.3877     0.3904 C.2     
  10 O10            3.2979     1.6422     0.7793 O.3     
  11 C11            6.9879     1.2871     1.2463 C.2     
  12 N12            7.2188     0.1818     0.5104 N.am    
  13 O13            7.8740     1.7548     1.9358 O.2     
  14 C14            8.5059    -0.3623     0.4509 C.ar    
  15 C15            8.6754    -1.7390     0.3687 C.ar    
  16 C16            9.9457    -2.2803     0.3097 C.ar    
  17 C17           11.0532    -1.4566     0.3326 C.ar    
  18 C18           10.8927    -0.0742     0.4150 C.ar    
  19 C19            9.6135     0.4724     0.4682 C.ar    
  20 C20           12.0821     0.8125     0.4397 C.ar    
  21 O21            4.7981     0.7331    -0.6090 O.2     
  22 O22            0.7869     2.7610     0.5436 O.3     
  23 C23           13.3606     0.2642     0.3748 C.ar    
  24 C24           11.9192     2.1954     0.5221 C.ar    
  25 C25           13.0219     3.0229     0.5449 C.ar    
  26 C26           14.2978     2.4806     0.4858 C.ar    
  27 C27           14.4666     1.0959     0.3978 C.ar    
  28 N28           15.5724     3.0413     0.4896 N.am    
  29 C29           16.4749     2.0454     0.4129 C.2     
  30 N30           15.8392     0.8600     0.3554 N.am    
  31 O31           17.6825     2.1943     0.3947 O.2     
  32 H32            0.5488     5.1178     1.6445 H       
  33 H33            2.3328     6.3514     2.8009 H       
  34 H34            4.5764     5.4065     2.9824 H       
  35 H35            6.1576     3.5287     2.5701 H       
  36 H36            6.4924    -0.2364     0.0222 H       
  37 H37            7.8121    -2.3878     0.3512 H       
  38 H38           10.0723    -3.3509     0.2459 H       
  39 H39           12.0443    -1.8832     0.2871 H       
  40 H40            9.4840     1.5428     0.5317 H       
  41 H41            0.2742     2.1849     1.1270 H       
  42 H42           13.4886    -0.8061     0.3072 H       
  43 H43           10.9268     2.6191     0.5679 H       
  44 H44           12.8926     4.0932     0.6084 H       
  45 H45           15.7755     3.9885     0.5391 H       
  46 H46           16.2643    -0.0099     0.2961 H       
@<TRIPOS>BOND
   1    1    2 ar
   2    1    6 ar
   3    1   32 1
   4    2    3 ar
   5    2   33 1
   6    3    4 ar
   7    3   34 1
   8    4    5 ar
   9    4    7 1
  10    5    6 ar
  11    5   10 1
  12    6   22 1
  13    7    8 2
  14    7   35 1
  15    8    9 1
  16    8   11 1
  17    9   10 1
  18    9   21 2
  19   11   12 am
  20   11   13 2
  21   12   14 1
  22   12   36 1
  23   14   15 ar
  24   14   19 ar
  25   15   16 ar
  26   15   37 1
  27   16   17 ar
  28   16   38 1
  29   17   18 ar
  30   17   39 1
  31   18   19 ar
  32   18   20 1
  33   19   40 1
  34   20   24 ar
  35   20   23 ar
  36   22   41 1
  37   23   27 ar
  38   23   42 1
  39   24   25 ar
  40   24   43 1
  41   25   26 ar
  42   25   44 1
  43   26   27 ar
  44   26   28 1
  45   27   30 1
  46   28   29 am
  47   28   45 1
  48   29   30 am
  49   29   31 2
  50   30   46 1

#	End of record

