#	Name: ASD01820084
#	Creating user name:	WinNT
#	Creation time:	15. 06. 2019 19:36

#	Modifying user name:	WinNT
#	Modification time:	15. 06. 2019 19:36

#	Program:	/corina/corina34_cracker 3.40 0067  02.08.2006

@<TRIPOS>MOLECULE
ASD01820084
  46   49    0    0    0
SMALL
NO_CHARGES


@<TRIPOS>ATOM
   1 C1            -0.0170     1.3994     0.0097 C.ar    
   2 C2             0.0021    -0.0041     0.0020 C.ar    
   3 C3             1.1946    -0.6616    -0.0128 C.ar    
   4 C4             2.3981     0.0405    -0.0200 C.ar    
   5 C5             2.4171     1.4012    -0.0125 C.ar    
   6 C6             1.2058     2.1160     0.0019 C.ar    
   7 N7             1.1960     3.4517     0.0086 N.ar    
   8 C8             0.0634     4.1279     0.0226 C.ar    
   9 C9            -1.1800     3.4759     0.0315 C.ar    
  10 C10           -1.2317     2.1139     0.0193 C.ar    
  11 C11            0.1044     5.6099     0.0295 C.ar    
  12 C12            1.3293     6.2757     0.0213 C.ar    
  13 C13            1.3619     7.6550     0.0273 C.ar    
  14 C14            0.1810     8.3778     0.0415 C.ar    
  15 C15           -1.0380     7.7213     0.0497 C.ar    
  16 C16           -1.0817     6.3424     0.0384 C.ar    
  17 C17           -2.5538     1.3907     0.0217 C.3     
  18 O18           -3.5550     2.2302     0.6003 O.3     
  19 C19           -2.9476     1.0433    -1.4154 C.3     
  20 C20           -2.2379    -0.1417    -3.4065 C.3     
  21 N21           -1.9180     0.1817    -2.0103 N.3     
  22 C22           -4.2902     0.3088    -1.4128 C.3     
  23 C23           -4.6705    -0.0544    -2.8508 C.3     
  24 C24           -3.5593    -0.9115    -3.4633 C.3     
  25 Cl25           0.2290    10.1131     0.0496 Cl      
  26 H26           -0.9241    -0.5596     0.0082 H       
  27 H27            1.2076    -1.7415    -0.0188 H       
  28 H28            3.3308    -0.5039    -0.0314 H       
  29 H29            3.3586     1.9302    -0.0175 H       
  30 H30           -2.0933     4.0522     0.0436 H       
  31 H31            2.2509     5.7129     0.0106 H       
  32 H32            2.3102     8.1718     0.0214 H       
  33 H33           -1.9563     8.2897     0.0611 H       
  34 H34           -2.0331     5.8313     0.0402 H       
  35 H35           -2.4657     0.4746     0.6058 H       
  36 H36           -3.6874     3.0652     0.1310 H       
  37 H37           -3.0360     1.9595    -1.9993 H       
  38 H38           -2.3297     0.7802    -3.9809 H       
  39 H39           -1.4419    -0.7549    -3.8289 H       
  40 H40           -1.0053     0.6056    -1.9373 H       
  41 H41           -4.2064    -0.6006    -0.8178 H       
  42 H42           -5.0574     0.9545    -0.9855 H       
  43 H43           -5.6049    -0.6157    -2.8498 H       
  44 H44           -4.7925     0.8567    -3.4366 H       
  45 H45           -3.8044    -1.1377    -4.5011 H       
  46 H46           -3.4640    -1.8401    -2.9006 H       
@<TRIPOS>BOND
   1    1    2 ar
   2    1    6 ar
   3    1   10 ar
   4    2    3 ar
   5    2   26 1
   6    3    4 ar
   7    3   27 1
   8    4    5 ar
   9    4   28 1
  10    5    6 ar
  11    5   29 1
  12    6    7 ar
  13    7    8 ar
  14    8    9 ar
  15    8   11 1
  16    9   10 ar
  17    9   30 1
  18   10   17 1
  19   11   12 ar
  20   11   16 ar
  21   12   13 ar
  22   12   31 1
  23   13   14 ar
  24   13   32 1
  25   14   15 ar
  26   14   25 1
  27   15   16 ar
  28   15   33 1
  29   16   34 1
  30   17   18 1
  31   17   19 1
  32   17   35 1
  33   18   36 1
  34   19   22 1
  35   19   21 1
  36   19   37 1
  37   20   21 1
  38   20   24 1
  39   20   38 1
  40   20   39 1
  41   21   40 1
  42   22   23 1
  43   22   41 1
  44   22   42 1
  45   23   24 1
  46   23   43 1
  47   23   44 1
  48   24   45 1
  49   24   46 1

#	End of record

