#	Name: ASD03082339
#	Creating user name:	WinNT
#	Creation time:	15. 06. 2019 20:27

#	Modifying user name:	WinNT
#	Modification time:	15. 06. 2019 20:27

#	Program:	/corina/corina34_cracker 3.40 0067  02.08.2006

@<TRIPOS>MOLECULE
ASD03082339
  51   54    0    0    0
SMALL
NO_CHARGES


@<TRIPOS>ATOM
   1 C1             1.1371    -0.6750     0.4676 C.ar    
   2 C2            -0.0077    -0.0551    -0.0148 C.ar    
   3 C3             0.0532     1.2539    -0.4745 C.ar    
   4 C4             1.2556     1.9400    -0.4514 C.ar    
   5 C5             2.4025     1.3151     0.0334 C.ar    
   6 C6             2.3377     0.0094     0.4909 C.ar    
   7 O7             1.5800     3.2085    -0.8375 O.3     
   8 C8             2.8428     3.4917    -0.2066 C.3     
   9 O9             3.4455     2.1936    -0.0494 O.3     
  10 F10            3.6318     4.3036    -1.0286 F       
  11 F11            2.6453     4.0961     1.0395 F       
  12 N12           -1.2227    -0.7495    -0.0384 N.pl3   
  13 C13           -2.4257    -0.0565     0.1087 C.2     
  14 N14           -2.5418     1.2451     0.3750 N.2     
  15 N15           -3.6256    -0.5804     0.0015 N.2     
  16 N16           -4.5460     0.4575     0.2196 N.pl3   
  17 C17           -3.8164     1.5723     0.4472 C.2     
  18 C18           -6.0072     0.3536     0.1997 C.3     
  19 C19           -6.5019    -0.0350     1.5691 C.2     
  20 N20           -7.8224    -0.1901     1.7897 N.am    
  21 O21           -5.7117    -0.2080     2.4728 O.2     
  22 C22           -8.3033    -0.5679     3.1209 C.3     
  23 C23           -9.8293    -0.6764     3.1001 C.3     
  24 C24           -4.3540     2.9222     0.7288 C.ar    
  25 C25           -5.6603     3.0918     1.2001 C.ar    
  26 C26           -3.5681     4.0635     0.5365 C.ar    
  27 C27           -4.1094     5.3026     0.8115 C.ar    
  28 N28           -5.3481     5.4185     1.2498 N.ar    
  29 C29           -6.1210     4.3683     1.4495 C.ar    
  30 C30           -3.2738     6.5403     0.6088 C.3     
  31 C31           -7.5283     4.5658     1.9513 C.3     
  32 H32            1.0885    -1.6916     0.8292 H       
  33 H33           -0.8370     1.7365    -0.8502 H       
  34 H34            3.2270    -0.4748     0.8667 H       
  35 H35           -1.2290    -1.7122    -0.1568 H       
  36 H36           -6.4360     1.3152    -0.0822 H       
  37 H37           -6.3077    -0.4044    -0.5237 H       
  38 H38           -8.4544    -0.0517     1.0669 H       
  39 H39           -7.8744    -1.5295     3.4028 H       
  40 H40           -8.0028     0.1901     3.8444 H       
  41 H41          -10.1871    -0.9574     4.0906 H       
  42 H42          -10.2581     0.2852     2.8182 H       
  43 H43          -10.1298    -1.4343     2.3767 H       
  44 H44           -6.2986     2.2366     1.3659 H       
  45 H45           -2.5529     3.9760     0.1786 H       
  46 H46           -3.4084     6.9069    -0.4089 H       
  47 H47           -3.5854     7.3089     1.3160 H       
  48 H48           -2.2232     6.3003     0.7725 H       
  49 H49           -8.2041     4.6768     1.1033 H       
  50 H50           -7.8275     3.7011     2.5436 H       
  51 H51           -7.5710     5.4623     2.5698 H       
@<TRIPOS>BOND
   1    1    2 ar
   2    1    6 ar
   3    1   32 1
   4    2    3 ar
   5    2   12 1
   6    3    4 ar
   7    3   33 1
   8    4    5 ar
   9    4    7 1
  10    5    6 ar
  11    5    9 1
  12    6   34 1
  13    7    8 1
  14    8    9 1
  15    8   10 1
  16    8   11 1
  17   12   13 1
  18   12   35 1
  19   13   14 1
  20   13   15 2
  21   14   17 2
  22   15   16 1
  23   16   17 1
  24   16   18 1
  25   17   24 1
  26   18   19 1
  27   18   36 1
  28   18   37 1
  29   19   20 am
  30   19   21 2
  31   20   22 1
  32   20   38 1
  33   22   23 1
  34   22   39 1
  35   22   40 1
  36   23   41 1
  37   23   42 1
  38   23   43 1
  39   24   25 ar
  40   24   26 ar
  41   25   29 ar
  42   25   44 1
  43   26   27 ar
  44   26   45 1
  45   27   28 ar
  46   27   30 1
  47   28   29 ar
  48   29   31 1
  49   30   46 1
  50   30   47 1
  51   30   48 1
  52   31   49 1
  53   31   50 1
  54   31   51 1

#	End of record

