#	Name: ASD07301000
#	Creating user name:	WinNT
#	Creation time:	15. 06. 2019 21:10

#	Modifying user name:	WinNT
#	Modification time:	15. 06. 2019 21:10

#	Program:	/corina/corina34_cracker 3.40 0067  02.08.2006

@<TRIPOS>MOLECULE
ASD07301000
  36   38    0    0    0
SMALL
NO_CHARGES


@<TRIPOS>ATOM
   1 C1            -0.0179     1.4652     0.0101 C.2     
   2 C2             0.0021    -0.0041     0.0020 C.2     
   3 C3             1.2771    -0.6368    -0.0136 C.2     
   4 C4             2.3783     0.1587    -0.0198 C.2     
   5 N5             2.2580     1.5100    -0.0114 N.pl3   
   6 N6             1.1288     2.1162     0.0026 N.2     
   7 C7            -1.2974     2.1985     0.0202 C.2     
   8 O8            -2.3477     1.5877     0.0218 O.2     
   9 O9            -1.3016     3.5461     0.0275 O.3     
  10 N10            2.7447     3.4519     1.9532 N.ar    
  11 C11            2.9412     4.3515     2.8867 C.ar    
  12 C12            4.0899     5.1391     2.9146 C.ar    
  13 C13            5.0465     4.9834     1.9523 C.ar    
  14 C14            4.8312     4.0162     0.9518 C.ar    
  15 C15            5.7712     3.8009    -0.0688 C.ar    
  16 C16            5.5345     2.8573    -1.0225 C.ar    
  17 C17            4.3695     2.0971    -1.0039 C.ar    
  18 C18            3.4228     2.2791    -0.0184 C.ar    
  19 C19            3.6405     3.2499     0.9837 C.ar    
  20 O20           -1.0315    -0.6548     0.0088 O.2     
  21 O21            1.3891    -1.9917    -0.0215 O.3     
  22 C22            2.7113    -2.5334    -0.0370 C.3     
  23 C23           -2.5974     4.2012     0.0372 C.3     
  24 H24            3.3608    -0.2897    -0.0312 H       
  25 H25            2.1928     4.4855     3.6538 H       
  26 H26            4.2238     5.8723     3.6962 H       
  27 H27            5.9430     5.5856     1.9583 H       
  28 H28            6.6805     4.3828    -0.0979 H       
  29 H29            6.2619     2.6971    -1.8045 H       
  30 H30            4.2045     1.3553    -1.7713 H       
  31 H31            3.2337    -2.1911    -0.9304 H       
  32 H32            3.2510    -2.2001     0.8494 H       
  33 H33            2.6580    -3.6220    -0.0420 H       
  34 H34           -2.4580     5.2822     0.0424 H       
  35 H35           -3.1577     3.9114    -0.8517 H       
  36 H36           -3.1493     3.9017     0.9282 H       
@<TRIPOS>BOND
   1    1    2 1
   2    1    6 2
   3    1    7 1
   4    2    3 1
   5    2   20 2
   6    3    4 2
   7    3   21 1
   8    4    5 1
   9    4   24 1
  10    5    6 1
  11    5   18 1
  12    7    8 2
  13    7    9 1
  14    9   23 1
  15   10   11 ar
  16   10   19 ar
  17   11   12 ar
  18   11   25 1
  19   12   13 ar
  20   12   26 1
  21   13   14 ar
  22   13   27 1
  23   14   15 ar
  24   14   19 ar
  25   15   16 ar
  26   15   28 1
  27   16   17 ar
  28   16   29 1
  29   17   18 ar
  30   17   30 1
  31   18   19 ar
  32   21   22 1
  33   22   31 1
  34   22   32 1
  35   22   33 1
  36   23   34 1
  37   23   35 1
  38   23   36 1

#	End of record

