#	Name: ASD02560097
#	Creating user name:	WinNT
#	Creation time:	15. 06. 2019 20:24

#	Modifying user name:	WinNT
#	Modification time:	15. 06. 2019 20:24

#	Program:	/corina/corina34_cracker 3.40 0067  02.08.2006

@<TRIPOS>MOLECULE
ASD02560097
  57   60    0    0    0
SMALL
NO_CHARGES


@<TRIPOS>ATOM
   1 N1            -0.1350     0.9471     0.0200 N.2     
   2 N2            -0.0437    -0.2844     0.0356 N.2     
   3 C3             1.1852     1.5761    -0.1161 C.3     
   4 N4             2.1530     0.5000     0.2156 N.3     
   5 C5             1.3550    -0.7150    -0.0869 C.3     
   6 S6             1.7200    -2.0254     1.1131 S.3     
   7 C7             1.2504    -1.2723     2.6952 C.3     
   8 C8             1.4987    -2.2533     3.8119 C.2     
   9 O9             1.9481    -3.3523     3.5648 O.2     
  10 N10            1.2212    -1.9094     5.0851 N.am    
  11 C11            3.2828     0.5734    -0.6023 C.ar    
  12 C12            1.3590    -2.8484     6.1069 C.ar    
  13 C13            0.4811    -2.8327     7.1879 C.ar    
  14 C14            0.6146    -3.7589     8.1985 C.ar    
  15 C15            1.6330    -4.7151     8.1377 C.ar    
  16 C16            2.5120    -4.7274     7.0509 C.ar    
  17 C17            2.3693    -3.8021     6.0412 C.ar    
  18 Cl18          -0.7823    -1.6444     7.2620 Cl      
  19 C19            1.7797    -5.7082     9.2179 C.2     
  20 O20            1.0152    -5.6961    10.1622 O.2     
  21 O21            2.7616    -6.6290     9.1578 O.3     
  22 C22            4.2354     1.5687    -0.3816 C.ar    
  23 C23            3.4540    -0.3468    -1.6253 C.ar    
  24 C24            4.5722    -0.2723    -2.4322 C.ar    
  25 C25            5.5123     0.7144    -2.2142 C.ar    
  26 C26            5.3498     1.6342    -1.1857 C.ar    
  27 C27            6.4234     2.6744    -0.9995 C.3     
  28 C28            5.9051     3.8360    -0.1542 C.3     
  29 C29            5.2790     3.2634     1.1228 C.3     
  30 C30            3.9863     2.5422     0.7404 C.3     
  31 C31            1.3989     2.0611    -1.5513 C.3     
  32 F32            0.3344     2.8871    -1.9279 F       
  33 F33            2.5966     2.7802    -1.6271 F       
  34 C34            6.7310     0.7911    -3.0973 C.3     
  35 H35            1.2846     2.4052     0.5844 H       
  36 H36            1.5585    -1.0601    -1.1007 H       
  37 H37            1.8459    -0.3746     2.8611 H       
  38 H38            0.1932    -1.0079     2.6721 H       
  39 H39            0.9258    -1.0087     5.2908 H       
  40 H40           -0.0660    -3.7463     9.0369 H       
  41 H41            3.2998    -5.4644     7.0012 H       
  42 H42            3.0483    -3.8114     5.2014 H       
  43 H43            2.8180    -7.2591     9.8892 H       
  44 H44            2.7165    -1.1184    -1.7901 H       
  45 H45            4.7109    -0.9849    -3.2319 H       
  46 H46            7.2802     2.2213    -0.5008 H       
  47 H47            6.7332     3.0497    -1.9748 H       
  48 H48            6.7313     4.4974     0.1067 H       
  49 H49            5.1530     4.3910    -0.7149 H       
  50 H50            5.9711     2.5617     1.5883 H       
  51 H51            5.0547     4.0735     1.8168 H       
  52 H52            3.2452     3.2762     0.4244 H       
  53 H53            3.6076     1.9999     1.6068 H       
  54 H54            1.4474     1.2028    -2.2215 H       
  55 H55            6.5200     1.4326    -3.9528 H       
  56 H56            7.5652     1.2044    -2.5302 H       
  57 H57            6.9895    -0.2083    -3.4474 H       
@<TRIPOS>BOND
   1    1    2 2
   2    1    3 1
   3    2    5 1
   4    3    4 1
   5    3   31 1
   6    3   35 1
   7    4    5 1
   8    4   11 1
   9    5    6 1
  10    5   36 1
  11    6    7 1
  12    7    8 1
  13    7   37 1
  14    7   38 1
  15    8    9 2
  16    8   10 am
  17   10   12 1
  18   10   39 1
  19   11   22 ar
  20   11   23 ar
  21   12   13 ar
  22   12   17 ar
  23   13   14 ar
  24   13   18 1
  25   14   15 ar
  26   14   40 1
  27   15   16 ar
  28   15   19 1
  29   16   17 ar
  30   16   41 1
  31   17   42 1
  32   19   20 2
  33   19   21 1
  34   21   43 1
  35   22   26 ar
  36   22   30 1
  37   23   24 ar
  38   23   44 1
  39   24   25 ar
  40   24   45 1
  41   25   26 ar
  42   25   34 1
  43   26   27 1
  44   27   28 1
  45   27   46 1
  46   27   47 1
  47   28   29 1
  48   28   48 1
  49   28   49 1
  50   29   30 1
  51   29   50 1
  52   29   51 1
  53   30   52 1
  54   30   53 1
  55   31   32 1
  56   31   33 1
  57   31   54 1
  58   34   55 1
  59   34   56 1
  60   34   57 1

#	End of record

