#	Name: ASD01811209
#	Creating user name:	WinNT
#	Creation time:	15. 06. 2019 19:26

#	Modifying user name:	WinNT
#	Modification time:	15. 06. 2019 19:26

#	Program:	/corina/corina34_cracker 3.40 0067  02.08.2006

@<TRIPOS>MOLECULE
ASD01811209
  64   68    0    0    0
SMALL
NO_CHARGES


@<TRIPOS>ATOM
   1 C1            -6.2782     2.1646    -4.4316 C.1     
   2 C2            -5.4098     3.0280    -3.6893 C.ar    
   3 C3            -4.1927     2.5478    -3.2017 C.ar    
   4 C4            -3.3610     3.3850    -2.4874 C.ar    
   5 C5            -3.7306     4.6976    -2.2533 C.ar    
   6 C6            -4.9354     5.1799    -2.7332 C.ar    
   7 C7            -5.7737     4.3555    -3.4548 C.ar    
   8 N8            -6.9671     1.4796    -5.0205 N.1     
   9 N9            -2.0978     8.0698    -0.2828 N.am    
  10 C10           -1.4631     7.7036    -1.5563 C.3     
  11 C11           -2.4191     6.8005    -2.3419 C.3     
  12 C12           -2.8170     5.6061    -1.4717 C.3     
  13 C13           -3.5425     6.1043    -0.2197 C.3     
  14 C14           -2.5993     6.9996     0.5900 C.3     
  15 C15           -2.2128     9.3626     0.0804 C.2     
  16 C16           -2.9411     9.7214     1.3162 C.ar    
  17 C17           -4.0140    10.6142     1.2623 C.ar    
  18 C18           -4.6949    10.9501     2.4152 C.ar    
  19 C19           -4.3210    10.4069     3.6286 C.ar    
  20 C20           -3.2506     9.5128     3.6966 C.ar    
  21 C21           -2.5623     9.1653     2.5361 C.ar    
  22 O22           -1.7178    10.2336    -0.6080 O.2     
  23 C23           -4.4288    11.2123    -0.0573 C.3     
  24 O24           -2.6028     7.6314     5.2487 O.3     
  25 C25           -2.8517     8.9321     4.9967 C.2     
  26 N26           -2.6735     9.5869     6.1198 N.2     
  27 N27           -2.3300     8.7596     7.0433 N.2     
  28 C28           -2.2757     7.5539     6.5501 C.2     
  29 C29           -1.9125     6.3000     7.3031 C.3     
  30 C30           -3.1779     5.6759     7.8949 C.3     
  31 C31           -5.0696    10.7802     4.8821 C.3     
  32 C32           -5.1186    12.2951     5.1423 C.3     
  33 C33           -6.5753    12.0914     5.5909 C.3     
  34 C34           -6.5945    10.8428     4.6934 C.3     
  35 H35           -3.9033     1.5232    -3.3831 H       
  36 H36           -2.4193     3.0149    -2.1096 H       
  37 H37           -5.2180     6.2054    -2.5466 H       
  38 H38           -6.7117     4.7345    -3.8330 H       
  39 H39           -1.2548     8.6047    -2.1332 H       
  40 H40           -0.5334     7.1693    -1.3609 H       
  41 H41           -3.3108     7.3648    -2.6150 H       
  42 H42           -1.9232     6.4437    -3.2446 H       
  43 H43           -1.9226     5.0566    -1.1783 H       
  44 H44           -4.4237     6.6752    -0.5127 H       
  45 H45           -3.8462     5.2520     0.3882 H       
  46 H46           -1.7622     6.4078     0.9605 H       
  47 H47           -3.1406     7.4361     1.4293 H       
  48 H48           -5.5236    11.6412     2.3681 H       
  49 H49           -1.7364     8.4711     2.5826 H       
  50 H50           -5.0983    10.5244    -0.5736 H       
  51 H51           -4.9432    12.1573     0.1178 H       
  52 H52           -3.5449    11.3880    -0.6704 H       
  53 H53           -1.4419     5.5908     6.6222 H       
  54 H54           -1.2190     6.5470     8.1069 H       
  55 H55           -2.9152     4.7690     8.4395 H       
  56 H56           -3.6485     6.3851     8.5758 H       
  57 H57           -3.8714     5.4290     7.0911 H       
  58 H58           -4.7592    10.1980     5.7497 H       
  59 H59           -4.4565    12.6220     5.9440 H       
  60 H60           -5.0200    12.8967     4.2387 H       
  61 H61           -6.6780    11.8675     6.6527 H       
  62 H62           -7.2495    12.8799     5.2564 H       
  63 H63           -6.8994    11.0474     3.6671 H       
  64 H64           -7.1239     9.9973     5.1328 H       
@<TRIPOS>BOND
   1    1    2 1
   2    1    8 3
   3    2    3 ar
   4    2    7 ar
   5    3    4 ar
   6    3   35 1
   7    4    5 ar
   8    4   36 1
   9    5    6 ar
  10    5   12 1
  11    6    7 ar
  12    6   37 1
  13    7   38 1
  14    9   10 1
  15    9   14 1
  16    9   15 am
  17   10   11 1
  18   10   39 1
  19   10   40 1
  20   11   12 1
  21   11   41 1
  22   11   42 1
  23   12   13 1
  24   12   43 1
  25   13   14 1
  26   13   44 1
  27   13   45 1
  28   14   46 1
  29   14   47 1
  30   15   16 1
  31   15   22 2
  32   16   17 ar
  33   16   21 ar
  34   17   18 ar
  35   17   23 1
  36   18   19 ar
  37   18   48 1
  38   19   20 ar
  39   19   31 1
  40   20   21 ar
  41   20   25 1
  42   21   49 1
  43   23   50 1
  44   23   51 1
  45   23   52 1
  46   24   25 1
  47   24   28 1
  48   25   26 2
  49   26   27 1
  50   27   28 2
  51   28   29 1
  52   29   30 1
  53   29   53 1
  54   29   54 1
  55   30   55 1
  56   30   56 1
  57   30   57 1
  58   31   32 1
  59   31   34 1
  60   31   58 1
  61   32   33 1
  62   32   59 1
  63   32   60 1
  64   33   34 1
  65   33   61 1
  66   33   62 1
  67   34   63 1
  68   34   64 1

#	End of record

