#	Name: ASD01152538
#	Creating user name:	WinNT
#	Creation time:	15. 06. 2019 19:06

#	Modifying user name:	WinNT
#	Modification time:	15. 06. 2019 19:06

#	Program:	/corina/corina34_cracker 3.40 0067  02.08.2006

@<TRIPOS>MOLECULE
ASD01152538
  49   51    0    0    0
SMALL
NO_CHARGES


@<TRIPOS>ATOM
   1 C1             0.1167     1.1519    -0.7093 C.2     
   2 N2             0.0222    -0.1484    -0.6273 N.2     
   3 N3            -1.1175    -0.7676    -0.1147 N.am    
   4 C4            -2.2571    -0.0984     0.1261 C.2     
   5 C5            -2.3864     1.3536    -0.2700 C.3     
   6 C6            -1.0009     1.9717    -0.2169 C.2     
   7 C7            -2.9513     1.4554    -1.6882 C.3     
   8 O8            -0.8261     3.0958     0.2061 O.2     
   9 C9            -1.0723    -2.1395     0.1590 C.ar    
  10 O10           -3.1863    -0.6624     0.6636 O.2     
  11 C11           -3.1924     2.9031    -2.0302 C.ar    
  12 C12           -0.0092    -2.6698     0.8764 C.ar    
  13 C13           -2.0947    -2.9707    -0.2823 C.ar    
  14 C14           -2.0513    -4.3247    -0.0123 C.ar    
  15 C15           -0.9912    -4.8572     0.6981 C.ar    
  16 C16            0.0321    -4.0300     1.1463 C.ar    
  17 C17           -2.1913     3.6487    -2.6239 C.ar    
  18 C18           -4.4168     3.4835    -1.7552 C.ar    
  19 C19           -4.6385     4.8110    -2.0686 C.ar    
  20 C20           -2.4117     4.9769    -2.9374 C.ar    
  21 Cl21          -0.9411    -6.5594     1.0355 Cl      
  22 C22           -3.6348     5.5595    -2.6577 C.ar    
  23 Cl23          -3.9127     7.2271    -3.0522 Cl      
  24 O24            1.2266     1.7351    -1.2333 O.3     
  25 C25            2.2667     0.8640    -1.6820 C.3     
  26 N26            1.1024    -4.5686     1.8699 N.am    
  27 C27            1.7658    -3.8050     2.7606 C.2     
  28 O28            1.4963    -2.6275     2.8695 O.2     
  29 C29            2.8423    -4.4144     3.6214 C.3     
  30 C30           -1.3201     5.7896    -3.5847 C.3     
  31 F31           -0.1877     4.9885    -3.7667 F       
  32 F32           -1.7626     6.2604    -4.8255 F       
  33 F33           -0.9967     6.8745    -2.7627 F       
  34 H34           -3.0453     1.8695     0.4284 H       
  35 H35           -2.2389     1.0290    -2.3945 H       
  36 H36           -3.8917     0.9072    -1.7450 H       
  37 H37            0.7846    -2.0250     1.2236 H       
  38 H38           -2.9243    -2.5575    -0.8367 H       
  39 H39           -2.8471    -4.9686    -0.3564 H       
  40 H40           -1.2366     3.1936    -2.8425 H       
  41 H41           -5.2002     2.8991    -1.2957 H       
  42 H42           -5.5950     5.2642    -1.8540 H       
  43 H43            3.0921     1.4568    -2.0764 H       
  44 H44            2.6201     0.2596    -0.8466 H       
  45 H45            1.8814     0.2113    -2.4653 H       
  46 H46            1.3668    -5.4914     1.7302 H       
  47 H47            3.8029    -4.3346     3.1125 H       
  48 H48            2.8900    -3.8846     4.5728 H       
  49 H49            2.6126    -5.4646     3.8014 H       
@<TRIPOS>BOND
   1    1    2 2
   2    1   24 1
   3    1    6 1
   4    2    3 1
   5    3    4 am
   6    3    9 1
   7    4    5 1
   8    4   10 2
   9    5    6 1
  10    5    7 1
  11    5   34 1
  12    6    8 2
  13    7   11 1
  14    7   35 1
  15    7   36 1
  16    9   12 ar
  17    9   13 ar
  18   11   17 ar
  19   11   18 ar
  20   12   16 ar
  21   12   37 1
  22   13   14 ar
  23   13   38 1
  24   14   15 ar
  25   14   39 1
  26   15   16 ar
  27   15   21 1
  28   16   26 1
  29   17   20 ar
  30   17   40 1
  31   18   19 ar
  32   18   41 1
  33   19   22 ar
  34   19   42 1
  35   20   30 1
  36   20   22 ar
  37   22   23 1
  38   24   25 1
  39   25   43 1
  40   25   44 1
  41   25   45 1
  42   26   27 am
  43   26   46 1
  44   27   28 2
  45   27   29 1
  46   29   47 1
  47   29   48 1
  48   29   49 1
  49   30   31 1
  50   30   32 1
  51   30   33 1

#	End of record

