#	Name: ASD01812947
#	Creating user name:	WinNT
#	Creation time:	15. 06. 2019 19:29

#	Modifying user name:	WinNT
#	Modification time:	15. 06. 2019 19:29

#	Program:	/corina/corina34_cracker 3.40 0067  02.08.2006

@<TRIPOS>MOLECULE
ASD01812947
  53   57    0    0    0
SMALL
NO_CHARGES


@<TRIPOS>ATOM
   1 C1            -0.0166     1.3764     0.0096 C.ar    
   2 C2             0.0021    -0.0041     0.0020 C.ar    
   3 C3             1.2089    -0.6872    -0.0127 C.ar    
   4 C4             2.3941     0.0075    -0.0203 C.ar    
   5 C5             2.3941     1.4057    -0.0132 C.ar    
   6 C6             1.1719     2.0915     0.0021 C.ar    
   7 C7             3.8413    -0.4177    -0.0364 C.3     
   8 N8             4.6313     0.8189    -0.0378 N.am    
   9 C9             3.7915     1.8684    -0.0244 C.2     
  10 C10            6.0942     0.8968    -0.0511 C.3     
  11 C11            6.5825     0.9304    -1.4764 C.ar    
  12 O12            1.1515     3.4479     0.0091 O.3     
  13 O13            4.1370     3.0341    -0.0215 O.2     
  14 C14            6.7419     2.1439    -2.1214 C.ar    
  15 C15            7.1891     2.1815    -3.4262 C.ar    
  16 C16            7.4806     0.9922    -4.0950 C.ar    
  17 C17            7.3177    -0.2283    -3.4389 C.ar    
  18 C18            6.8749    -0.2520    -2.1324 C.ar    
  19 C19           -0.1314     4.0773     0.0243 C.3     
  20 C20            0.0461     5.5969     0.0302 C.3     
  21 C21            7.9599     1.0252    -5.4939 C.2     
  22 O22            0.6256     6.0233    -1.2083 O.3     
  23 C23           -0.2819     6.8960    -1.8999 C.3     
  24 C24           -1.1849     7.4988    -0.7944 C.3     
  25 C25           -1.3298     6.2844     0.1627 C.3     
  26 N26            8.1540     2.0946    -6.2182 N.2     
  27 N27            8.5692     1.9038    -7.3952 N.2     
  28 C28            8.7642     0.6834    -7.7781 C.2     
  29 S29            8.3805    -0.3723    -6.4849 S.3     
  30 C30            9.2546     0.2599    -9.1386 C.3     
  31 F31            9.5777     1.3938    -9.8917 F       
  32 F32           10.3907    -0.5440    -8.9954 F       
  33 F33            8.2509    -0.4634    -9.7918 F       
  34 H34           -0.9604     1.9015     0.0169 H       
  35 H35           -0.9272    -0.5544     0.0079 H       
  36 H36            1.2170    -1.7672    -0.0179 H       
  37 H37            4.0688    -1.0067     0.8521 H       
  38 H38            4.0515    -0.9977    -0.9350 H       
  39 H39            6.4145     1.8024     0.4641 H       
  40 H40            6.5091     0.0250     0.4546 H       
  41 H41            6.5156     3.0637    -1.6027 H       
  42 H42            7.3128     3.1294    -3.9287 H       
  43 H43            7.5414    -1.1523    -3.9514 H       
  44 H44            6.7523    -1.1959    -1.6220 H       
  45 H45           -0.6922     3.7805    -0.8620 H       
  46 H46           -0.6756     3.7715     0.9178 H       
  47 H47            0.6892     5.8907     0.8599 H       
  48 H48            0.2684     7.6858    -2.4113 H       
  49 H49           -0.8824     6.3300    -2.6120 H       
  50 H50           -0.6924     8.3344    -0.2971 H       
  51 H51           -2.1522     7.7989    -1.1976 H       
  52 H52           -2.1284     5.6214    -0.1700 H       
  53 H53           -1.5008     6.6159     1.1869 H       
@<TRIPOS>BOND
   1    1    2 ar
   2    1    6 ar
   3    1   34 1
   4    2    3 ar
   5    2   35 1
   6    3    4 ar
   7    3   36 1
   8    4    7 1
   9    4    5 ar
  10    5    6 ar
  11    5    9 1
  12    6   12 1
  13    7    8 1
  14    7   37 1
  15    7   38 1
  16    8    9 am
  17    8   10 1
  18    9   13 2
  19   10   11 1
  20   10   39 1
  21   10   40 1
  22   11   14 ar
  23   11   18 ar
  24   12   19 1
  25   14   15 ar
  26   14   41 1
  27   15   16 ar
  28   15   42 1
  29   16   17 ar
  30   16   21 1
  31   17   18 ar
  32   17   43 1
  33   18   44 1
  34   19   20 1
  35   19   45 1
  36   19   46 1
  37   20   22 1
  38   20   25 1
  39   20   47 1
  40   21   26 2
  41   21   29 1
  42   22   23 1
  43   23   24 1
  44   23   48 1
  45   23   49 1
  46   24   25 1
  47   24   50 1
  48   24   51 1
  49   25   52 1
  50   25   53 1
  51   26   27 1
  52   27   28 2
  53   28   29 1
  54   28   30 1
  55   30   31 1
  56   30   32 1
  57   30   33 1

#	End of record

