#	Name: ASD01916949
#	Creating user name:	WinNT
#	Creation time:	15. 06. 2019 20:08

#	Modifying user name:	WinNT
#	Modification time:	15. 06. 2019 20:08

#	Program:	/corina/corina34_cracker 3.40 0067  02.08.2006

@<TRIPOS>MOLECULE
ASD01916949
  64   68    0    0    0
SMALL
NO_CHARGES


@<TRIPOS>ATOM
   1 C1             0.0527     0.7310     0.8250 C.ar    
   2 C2             0.1336    -0.6307     1.0679 C.ar    
   3 C3             1.3692    -1.2534     1.1398 C.ar    
   4 C4             2.5249    -0.5192     0.9696 C.ar    
   5 C5             2.4482     0.8505     0.7251 C.ar    
   6 C6             1.2035     1.4727     0.6536 C.ar    
   7 C7             3.6886     1.6443     0.5418 C.2     
   8 N8             4.9348     1.1607     0.5883 N.2     
   9 N9             3.7404     2.9368     0.3017 N.2     
  10 N10            5.0984     3.2790     0.1984 N.pl3   
  11 C11            5.7967     2.1346     0.3849 C.2     
  12 C12            7.2701     2.0018     0.3640 C.ar    
  13 C13            5.6502     4.6105    -0.0642 C.3     
  14 C14            5.8541     5.3360     1.2409 C.2     
  15 O15            5.5669     4.7941     2.2872 O.2     
  16 N16            6.3557     6.5869     1.2452 N.am    
  17 C17            6.5627     7.3128     2.5075 C.3     
  18 C18            7.9982     7.8485     2.5313 C.3     
  19 N19            8.2442     8.6348     1.3150 N.3     
  20 C20            8.1403     7.8000     0.1108 C.3     
  21 C21            6.7163     7.2600    -0.0118 C.3     
  22 C22            9.4801     9.2725     1.3748 C.ar    
  23 C23            8.0769     3.1252     0.5472 C.ar    
  24 C24            9.4498     2.9961     0.5268 C.ar    
  25 C25           10.0283     1.7531     0.3243 C.ar    
  26 C26            9.2313     0.6342     0.1413 C.ar    
  27 C27            7.8574     0.7516     0.1666 C.ar    
  28 F28           11.3737     1.6318     0.3047 F       
  29 F29           -0.9955    -1.3532     1.2357 F       
  30 C30           10.3115     9.1191     2.4863 C.ar    
  31 C31            9.9203    10.0742     0.3259 C.ar    
  32 C32           11.1591    10.6919     0.4249 C.ar    
  33 N33           11.9146    10.5232     1.5009 N.ar    
  34 C34           11.5281     9.7650     2.5107 C.ar    
  35 N35           11.6126    11.4954    -0.6152 N.pl3   
  36 C36           10.7800    11.6936    -1.8042 C.3     
  37 C37           12.9230    12.1438    -0.5221 C.3     
  38 H38           -0.9125     1.2116     0.7653 H       
  39 H39            1.4278    -2.3149     1.3297 H       
  40 H40            3.4877    -1.0053     1.0261 H       
  41 H41            1.1395     2.5340     0.4639 H       
  42 H42            6.6061     4.5127    -0.5787 H       
  43 H43            4.9573     5.1742    -0.6888 H       
  44 H44            5.8605     8.1441     2.5712 H       
  45 H45            6.4104     6.6361     3.3483 H       
  46 H46            8.1357     8.4818     3.4077 H       
  47 H47            8.6974     7.0134     2.5721 H       
  48 H48            8.3808     8.3980    -0.7682 H       
  49 H49            8.8375     6.9655     0.1853 H       
  50 H50            6.6637     6.5502    -0.8373 H       
  51 H51            6.0260     8.0846    -0.1897 H       
  52 H52            7.6270     4.0944     0.7044 H       
  53 H53           10.0752     3.8651     0.6686 H       
  54 H54            9.6869    -0.3322    -0.0165 H       
  55 H55            7.2371    -0.1210     0.0243 H       
  56 H56           10.0041     8.5015     3.3173 H       
  57 H57            9.3071    10.2133    -0.5523 H       
  58 H58           12.1729     9.6535     3.3699 H       
  59 H59            9.8111    11.2177    -1.6528 H       
  60 H60           10.6379    12.7608    -1.9744 H       
  61 H61           11.2714    11.2498    -2.6700 H       
  62 H62           13.6844    11.4860    -0.9412 H       
  63 H63           12.9053    13.0804    -1.0794 H       
  64 H64           13.1542    12.3474     0.5234 H       
@<TRIPOS>BOND
   1    1    2 ar
   2    1    6 ar
   3    1   38 1
   4    2    3 ar
   5    2   29 1
   6    3    4 ar
   7    3   39 1
   8    4    5 ar
   9    4   40 1
  10    5    6 ar
  11    5    7 1
  12    6   41 1
  13    7    8 1
  14    7    9 2
  15    8   11 2
  16    9   10 1
  17   10   11 1
  18   10   13 1
  19   11   12 1
  20   12   23 ar
  21   12   27 ar
  22   13   14 1
  23   13   42 1
  24   13   43 1
  25   14   15 2
  26   14   16 am
  27   16   17 1
  28   16   21 1
  29   17   18 1
  30   17   44 1
  31   17   45 1
  32   18   19 1
  33   18   46 1
  34   18   47 1
  35   19   20 1
  36   19   22 1
  37   20   21 1
  38   20   48 1
  39   20   49 1
  40   21   50 1
  41   21   51 1
  42   22   31 ar
  43   22   30 ar
  44   23   24 ar
  45   23   52 1
  46   24   25 ar
  47   24   53 1
  48   25   26 ar
  49   25   28 1
  50   26   27 ar
  51   26   54 1
  52   27   55 1
  53   30   34 ar
  54   30   56 1
  55   31   32 ar
  56   31   57 1
  57   32   33 ar
  58   32   35 1
  59   33   34 ar
  60   34   58 1
  61   35   36 1
  62   35   37 1
  63   36   59 1
  64   36   60 1
  65   36   61 1
  66   37   62 1
  67   37   63 1
  68   37   64 1

#	End of record

