#	Name: ASD00069055
#	Creating user name:	WinNT
#	Creation time:	15. 06. 2019 18:29

#	Modifying user name:	WinNT
#	Modification time:	15. 06. 2019 18:29

#	Program:	/corina/corina34_cracker 3.40 0067  02.08.2006

@<TRIPOS>MOLECULE
ASD00069055
  52   57    0    0    0
SMALL
NO_CHARGES


@<TRIPOS>ATOM
   1 C1            -0.0185     1.3935     0.0029 C.ar    
   2 C2            -0.0132     0.0168     0.2277 C.ar    
   3 C3            -1.1808    -0.6890     0.2320 C.ar    
   4 C4            -2.3928    -0.0314     0.0099 C.ar    
   5 C5            -2.4071     1.3570    -0.2177 C.ar    
   6 C6            -1.2083     2.0642    -0.2134 C.ar    
   7 C7            -3.7919    -0.4727    -0.0510 C.2     
   8 N8            -4.5300     0.5858    -0.2934 N.2     
   9 N9            -3.7179     1.7191    -0.4010 N.pl3   
  10 C10           -4.2797    -1.8546     0.1275 C.2     
  11 N11           -3.5219    -2.8968     0.3692 N.2     
  12 C12           -4.2937    -4.0067     0.4763 C.ar    
  13 C13           -5.6278    -3.6055     0.2840 C.ar    
  14 N14           -5.5939    -2.2407     0.0713 N.pl3   
  15 C15           -4.0072    -5.3537     0.7234 C.ar    
  16 C16           -5.0194    -6.2680     0.7765 C.ar    
  17 C17           -6.3427    -5.8734     0.5864 C.ar    
  18 C18           -6.6474    -4.5446     0.3398 C.ar    
  19 N19            1.1881     2.1018     0.0020 N.am    
  20 C20            1.2357     3.3527     0.5016 C.2     
  21 O21            0.2174     3.8959     0.8743 O.2     
  22 C22            2.5541     4.0763     0.5970 C.3     
  23 C23            2.5420     5.4937     1.1730 C.3     
  24 C24            3.1164     4.3386     1.9956 C.3     
  25 F25            3.4460     6.4168     0.6364 F       
  26 F26            1.3077     6.0188     1.5708 F       
  27 N27           -7.3671    -6.8229     0.6441 N.3     
  28 C28           -6.8280    -8.1637     0.9142 C.3     
  29 C29           -8.1590    -6.8197    -0.5946 C.3     
  30 C30           -9.3028    -7.8291    -0.4654 C.3     
  31 O31           -8.7617    -9.1201    -0.1720 O.3     
  32 C32           -7.9852    -9.1597     1.0283 C.3     
  33 H33            0.9225    -0.4944     0.3994 H       
  34 H34           -1.1679    -1.7548     0.4065 H       
  35 H35           -1.2066     3.1301    -0.3868 H       
  36 H36           -4.0319     2.6198    -0.5773 H       
  37 H37           -6.3567    -1.6645    -0.0931 H       
  38 H38           -2.9853    -5.6701     0.8718 H       
  39 H39           -4.7928    -7.3066     0.9672 H       
  40 H40           -7.6734    -4.2412     0.1930 H       
  41 H41            1.9905     1.6926    -0.3582 H       
  42 H42            3.2662     3.8631    -0.2002 H       
  43 H43            2.5327     3.9877     2.8466 H       
  44 H44            4.1987     4.2979     2.1187 H       
  45 H45           -6.1698    -8.4625     0.0984 H       
  46 H46           -6.2670    -8.1490     1.8486 H       
  47 H47           -8.5695    -5.8238    -0.7615 H       
  48 H48           -7.5220    -7.0969    -1.4345 H       
  49 H49           -9.9697    -7.5223     0.3404 H       
  50 H50           -9.8583    -7.8716    -1.4022 H       
  51 H51           -7.5878   -10.1645     1.1717 H       
  52 H52           -8.6138    -8.8916     1.8774 H       
@<TRIPOS>BOND
   1    1    2 ar
   2    1   19 1
   3    1    6 ar
   4    2    3 ar
   5    2   33 1
   6    3    4 ar
   7    3   34 1
   8    4    5 ar
   9    4    7 1
  10    5    6 ar
  11    5    9 1
  12    6   35 1
  13    7    8 2
  14    7   10 1
  15    8    9 1
  16    9   36 1
  17   10   11 2
  18   10   14 1
  19   11   12 1
  20   12   13 ar
  21   12   15 ar
  22   13   14 1
  23   13   18 ar
  24   14   37 1
  25   15   16 ar
  26   15   38 1
  27   16   17 ar
  28   16   39 1
  29   17   18 ar
  30   17   27 1
  31   18   40 1
  32   19   20 am
  33   19   41 1
  34   20   21 2
  35   20   22 1
  36   22   23 1
  37   22   24 1
  38   22   42 1
  39   23   24 1
  40   23   26 1
  41   23   25 1
  42   24   43 1
  43   24   44 1
  44   27   28 1
  45   27   29 1
  46   28   32 1
  47   28   45 1
  48   28   46 1
  49   29   30 1
  50   29   47 1
  51   29   48 1
  52   30   31 1
  53   30   49 1
  54   30   50 1
  55   31   32 1
  56   32   51 1
  57   32   52 1

#	End of record

