#	Name: ASD01820185
#	Creating user name:	WinNT
#	Creation time:	15. 06. 2019 19:36

#	Modifying user name:	WinNT
#	Modification time:	15. 06. 2019 19:36

#	Program:	/corina/corina34_cracker 3.40 0067  02.08.2006

@<TRIPOS>MOLECULE
ASD01820185
  99  102    0    0    0
SMALL
NO_CHARGES


@<TRIPOS>ATOM
   1 C1            -5.7123    -0.9233    -1.7171 C.ar    
   2 C2            -5.4182    -2.2651    -1.4014 C.ar    
   3 C3            -6.3506    -2.6392    -0.3172 C.2     
   4 N4            -7.1264    -1.5774    -0.0337 N.am    
   5 C5            -6.8098    -0.5257    -0.8104 C.2     
   6 C6            -8.1747    -1.5664     0.9897 C.3     
   7 C7            -7.5779    -1.1210     2.3263 C.3     
   8 C8            -8.6726    -1.1095     3.3951 C.3     
   9 N9            -8.0686    -1.3234     4.7170 N.4     
  10 C10           -9.0859    -1.1252     5.7580 C.3     
  11 C11           -8.4569    -1.3480     7.1348 C.3     
  12 C12           -9.5164    -1.1415     8.2191 C.3     
  13 C13           -8.8874    -1.3644     9.5958 C.3     
  14 C14           -9.9469    -1.1579    10.6801 C.3     
  15 C15           -9.3179    -1.3807    12.0569 C.3     
  16 N16          -10.3352    -1.1824    13.0979 N.4     
  17 C17           -9.7312    -1.3964    14.4198 C.3     
  18 C18          -10.8351    -1.6301    15.4531 C.3     
  19 N19          -11.3255    -1.6501    17.8491 N.am    
  20 O20           -7.3417     0.5656    -0.7772 O.2     
  21 O21           -6.4073    -3.7238     0.2262 O.2     
  22 C22          -10.2685    -1.4263    16.8597 C.3     
  23 C23          -11.6036    -2.8410    18.4096 C.2     
  24 C24          -12.7282    -2.6665    19.3528 C.ar    
  25 C25          -13.0727    -1.3007    19.2937 C.ar    
  26 C26          -12.1419    -0.6907    18.3208 C.2     
  27 C27          -13.4268    -3.5174    20.1936 C.ar    
  28 C28          -14.4606    -3.0189    20.9716 C.ar    
  29 C29          -14.7983    -1.6802    20.9137 C.ar    
  30 C30          -14.1082    -0.8169    20.0765 C.ar    
  31 O31          -11.0274    -3.8849    18.1789 O.2     
  32 O32          -12.1227     0.4794    17.9959 O.2     
  33 C33          -10.8600     0.1871    13.0152 C.3     
  34 C34          -11.4316    -2.1398    12.8998 C.3     
  35 C35           -7.5438    -2.6930     4.7997 C.3     
  36 C36           -6.9722    -0.3661     4.9151 C.3     
  37 C37           -4.9960    -0.2764    -2.7114 C.ar    
  38 C38           -3.9946    -0.9543    -3.3887 C.ar    
  39 C39           -3.7065    -2.2704    -3.0795 C.ar    
  40 C40           -4.4146    -2.9303    -2.0873 C.ar    
  41 C41           -3.2149    -0.2519    -4.4702 C.3     
  42 C42          -11.9756    -0.6386    15.2141 C.3     
  43 C43          -11.3651    -3.0591    15.3189 C.3     
  44 C44           -6.4714    -2.0933     2.7400 C.3     
  45 C45           -6.9928     0.2852     2.1803 C.3     
  46 H46           -8.9629    -0.8737     0.6949 H       
  47 H47           -8.5914    -2.5682     1.0937 H       
  48 H48           -9.1842    -0.1471     3.3808 H       
  49 H49           -9.3891    -1.9049     3.1899 H       
  50 H50           -9.4753    -0.1090     5.6966 H       
  51 H51           -9.8995    -1.8355     5.6110 H       
  52 H52           -8.0675    -2.3642     7.1962 H       
  53 H53           -7.6433    -0.6377     7.2818 H       
  54 H54           -9.9058    -0.1253     8.1577 H       
  55 H55          -10.3300    -1.8519     8.0720 H       
  56 H56           -8.4980    -2.3806     9.6572 H       
  57 H57           -8.0738    -0.6540     9.7429 H       
  58 H58          -10.3363    -0.1416    10.6188 H       
  59 H59          -10.7605    -1.8682    10.5331 H       
  60 H60           -8.9285    -2.3969    12.1183 H       
  61 H61           -8.5043    -0.6704    12.2039 H       
  62 H62           -9.0770    -2.2675    14.3837 H       
  63 H63           -9.1508    -0.5175    14.7007 H       
  64 H64           -9.4560    -2.1327    17.0299 H       
  65 H65           -9.8909    -0.4083    16.9553 H       
  66 H66          -13.1675    -4.5646    20.2427 H       
  67 H67          -15.0060    -3.6816    21.6272 H       
  68 H68          -15.6055    -1.3039    21.5246 H       
  69 H69          -14.3764     0.2285    20.0353 H       
  70 H70          -11.4031     0.3121    12.0785 H       
  71 H71          -11.5333     0.3694    13.8528 H       
  72 H72          -10.0329     0.8961    13.0531 H       
  73 H73          -11.0429    -3.1560    12.9652 H       
  74 H74          -12.1884    -1.9899    13.6698 H       
  75 H75          -11.8771    -1.9837    11.9173 H       
  76 H76           -6.5297    -2.7182     4.4008 H       
  77 H77           -7.5329    -3.0157     5.8408 H       
  78 H78           -8.1794    -3.3614     4.2188 H       
  79 H79           -7.1900     0.5533     4.3717 H       
  80 H80           -6.8706    -0.1449     5.9776 H       
  81 H81           -6.0424    -0.7965     4.5431 H       
  82 H82           -5.2173     0.7516    -2.9577 H       
  83 H83           -2.9241    -2.7881    -3.6146 H       
  84 H84           -4.1849    -3.9585    -1.8495 H       
  85 H85           -2.3416     0.2320    -4.0327 H       
  86 H86           -2.8922    -0.9785    -5.2158 H       
  87 H87           -3.8468     0.4990    -4.9444 H       
  88 H88          -12.3018    -0.7034    14.1761 H       
  89 H89          -12.8100    -0.8790    15.8729 H       
  90 H90          -11.6274     0.3729    15.4231 H       
  91 H91          -10.5389    -3.7636    15.4152 H       
  92 H92          -12.0984    -3.2498    16.1025 H       
  93 H93          -11.8355    -3.1820    14.3433 H       
  94 H94           -5.7422    -2.1781     1.9343 H       
  95 H95           -5.9785    -1.7218     3.6385 H       
  96 H96           -6.9051    -3.0727     2.9421 H       
  97 H97           -7.7967     0.9945     1.9835 H       
  98 H98           -6.4805     0.5630     3.1014 H       
  99 H99           -6.2845     0.2998     1.3519 H       
@<TRIPOS>BOND
   1    1    2 ar
   2    1   37 ar
   3    1    5 1
   4    2    3 1
   5    2   40 ar
   6    3    4 am
   7    3   21 2
   8    4    5 am
   9    4    6 1
  10    5   20 2
  11    6    7 1
  12    6   46 1
  13    6   47 1
  14    7    8 1
  15    7   44 1
  16    7   45 1
  17    8    9 1
  18    8   48 1
  19    8   49 1
  20    9   10 1
  21    9   35 1
  22    9   36 1
  23   10   11 1
  24   10   50 1
  25   10   51 1
  26   11   12 1
  27   11   52 1
  28   11   53 1
  29   12   13 1
  30   12   54 1
  31   12   55 1
  32   13   14 1
  33   13   56 1
  34   13   57 1
  35   14   15 1
  36   14   58 1
  37   14   59 1
  38   15   16 1
  39   15   60 1
  40   15   61 1
  41   16   17 1
  42   16   33 1
  43   16   34 1
  44   17   18 1
  45   17   62 1
  46   17   63 1
  47   18   22 1
  48   18   42 1
  49   18   43 1
  50   19   23 am
  51   19   22 1
  52   19   26 am
  53   22   64 1
  54   22   65 1
  55   23   24 1
  56   23   31 2
  57   24   25 ar
  58   24   27 ar
  59   25   26 1
  60   25   30 ar
  61   26   32 2
  62   27   28 ar
  63   27   66 1
  64   28   29 ar
  65   28   67 1
  66   29   30 ar
  67   29   68 1
  68   30   69 1
  69   33   70 1
  70   33   71 1
  71   33   72 1
  72   34   73 1
  73   34   74 1
  74   34   75 1
  75   35   76 1
  76   35   77 1
  77   35   78 1
  78   36   79 1
  79   36   80 1
  80   36   81 1
  81   37   38 ar
  82   37   82 1
  83   38   39 ar
  84   38   41 1
  85   39   40 ar
  86   39   83 1
  87   40   84 1
  88   41   85 1
  89   41   86 1
  90   41   87 1
  91   42   88 1
  92   42   89 1
  93   42   90 1
  94   43   91 1
  95   43   92 1
  96   43   93 1
  97   44   94 1
  98   44   95 1
  99   44   96 1
 100   45   97 1
 101   45   98 1
 102   45   99 1

#	End of record

