#	Name: ASD01209050
#	Creating user name:	WinNT
#	Creation time:	15. 06. 2019 19:10

#	Modifying user name:	WinNT
#	Modification time:	15. 06. 2019 19:10

#	Program:	/corina/corina34_cracker 3.40 0067  02.08.2006

@<TRIPOS>MOLECULE
ASD01209050
  59   63    0    0    0
SMALL
NO_CHARGES


@<TRIPOS>ATOM
   1 C1            -1.9727     1.4963    -1.5168 C.3     
   2 C2            -2.1590    -0.0175    -1.3748 C.3     
   3 C3            -1.5403    -0.4880    -0.0569 C.3     
   4 C4            -1.5518    -2.0171    -0.0053 C.3     
   5 C5            -0.7755    -2.4849     1.1986 C.2     
   6 N6             0.5530    -2.2689     1.2694 N.am    
   7 C7             1.2935    -2.7996     2.3345 C.2     
   8 N8            -2.9344    -2.4920     0.0904 N.pl3   
   9 C9            -3.4997    -3.4581    -0.7003 C.ar    
  10 C10           -4.8335    -3.6034    -0.2716 C.ar    
  11 C11           -5.0170    -2.6583     0.8250 C.2     
  12 N12           -3.8872    -2.0364     1.0075 N.2     
  13 C13           -7.2091    -5.3720     1.3107 C.3     
  14 O14           -1.3462    -3.0558     2.1039 O.2     
  15 C15           -3.0295    -4.2423    -1.7504 C.ar    
  16 C16           -3.8624    -5.1421    -2.3532 C.ar    
  17 C17           -5.1782    -5.2870    -1.9318 C.ar    
  18 C18           -5.6665    -4.5326    -0.9043 C.ar    
  19 C19           -8.5082    -5.7632     2.0179 C.3     
  20 C20           -7.5461    -6.8482     1.5301 C.3     
  21 C21           -3.6565    -0.3394    -1.3815 C.3     
  22 C22           -4.2817     0.2048    -2.6687 C.3     
  23 O23           -4.0457     1.6116    -2.7536 O.3     
  24 C24           -2.6629     1.9695    -2.7987 C.3     
  25 C25            0.7825    -3.5706     3.3909 C.2     
  26 C26            1.8118    -3.8877     4.2089 C.2     
  27 N27            2.9332    -3.3407     3.6942 N.pl3   
  28 N28            2.5864    -2.6676     2.5157 N.2     
  29 C29            4.2788    -3.4388     4.2651 C.3     
  30 S30           -7.3374    -4.7259    -0.3795 S.o2    
  31 O31           -7.8667    -5.7143    -1.2524 O.2     
  32 O32           -7.8568    -3.4032    -0.3696 O.2     
  33 H33           -2.4154     1.9999    -0.6574 H       
  34 H34           -0.9091     1.7291    -1.5685 H       
  35 H35           -1.6720    -0.5245    -2.2078 H       
  36 H36           -0.5130    -0.1299     0.0104 H       
  37 H37           -2.1186    -0.0919     0.7778 H       
  38 H38           -1.0929    -2.4146    -0.9105 H       
  39 H39            0.9966    -1.7462     0.5832 H       
  40 H40           -5.9259    -2.5051     1.3879 H       
  41 H41           -6.4146    -4.9409     1.9198 H       
  42 H42           -2.0088    -4.1393    -2.0879 H       
  43 H43           -3.4934    -5.7480    -3.1675 H       
  44 H44           -5.8208    -6.0039    -2.4213 H       
  45 H45           -8.5683    -5.5897     3.0923 H       
  46 H46           -9.4400    -5.6323     1.4676 H       
  47 H47           -7.8449    -7.4311     0.6589 H       
  48 H48           -6.9732    -7.3886     2.2836 H       
  49 H49           -3.7972    -1.4193    -1.3365 H       
  50 H50           -4.1333     0.1272    -0.5195 H       
  51 H51           -3.8328    -0.2917    -3.5290 H       
  52 H52           -5.3553     0.0162    -2.6593 H       
  53 H53           -2.5703     3.0523    -2.8829 H       
  54 H54           -2.1928     1.4961    -3.6607 H       
  55 H55           -0.2494    -3.8589     3.5265 H       
  56 H56            1.7477    -4.4741     5.1135 H       
  57 H57            4.7807    -4.3191     3.8633 H       
  58 H58            4.8489    -2.5463     4.0072 H       
  59 H59            4.2082    -3.5241     5.3494 H       
@<TRIPOS>BOND
   1    1    2 1
   2    1   24 1
   3    1   33 1
   4    1   34 1
   5    2    3 1
   6    2   21 1
   7    2   35 1
   8    3    4 1
   9    3   36 1
  10    3   37 1
  11    4    5 1
  12    4    8 1
  13    4   38 1
  14    5    6 am
  15    5   14 2
  16    6    7 1
  17    6   39 1
  18    7   25 1
  19    7   28 2
  20    8    9 1
  21    8   12 1
  22    9   10 ar
  23    9   15 ar
  24   10   11 1
  25   10   18 ar
  26   11   12 2
  27   11   40 1
  28   13   19 1
  29   13   30 1
  30   13   20 1
  31   13   41 1
  32   15   16 ar
  33   15   42 1
  34   16   17 ar
  35   16   43 1
  36   17   18 ar
  37   17   44 1
  38   18   30 1
  39   19   20 1
  40   19   45 1
  41   19   46 1
  42   20   47 1
  43   20   48 1
  44   21   22 1
  45   21   49 1
  46   21   50 1
  47   22   23 1
  48   22   51 1
  49   22   52 1
  50   23   24 1
  51   24   53 1
  52   24   54 1
  53   25   26 2
  54   25   55 1
  55   26   27 1
  56   26   56 1
  57   27   28 1
  58   27   29 1
  59   29   57 1
  60   29   58 1
  61   29   59 1
  62   30   31 2
  63   30   32 2

#	End of record

