#	Name: ASD01916539
#	Creating user name:	WinNT
#	Creation time:	15. 06. 2019 20:07

#	Modifying user name:	WinNT
#	Modification time:	15. 06. 2019 20:07

#	Program:	/corina/corina34_cracker 3.40 0067  02.08.2006

@<TRIPOS>MOLECULE
ASD01916539
  24   24    0    0    0
SMALL
NO_CHARGES


@<TRIPOS>ATOM
   1 O1            -0.0144     1.2088     0.0087 O.3     
   2 N2             0.0021    -0.0041     0.0020 N.2     
   3 C3             1.2271    -0.4372    -0.0120 C.2     
   4 N4             2.0346     0.6383    -0.0139 N.2     
   5 C5             1.2366     1.6788    -0.0007 C.2     
   6 C6             1.6630    -1.8798    -0.0239 C.3     
   7 C7             1.1316    -2.5835     1.2264 C.3     
   8 C8             1.1087    -2.5697    -1.2720 C.3     
   9 C9             1.6511     3.1277     0.0021 C.3     
  10 C10            1.7773     3.6249    -1.4393 C.3     
  11 C11            2.1821     5.0401    -1.4365 C.1     
  12 C12            2.5050     6.1689    -1.4343 C.1     
  13 H13            2.7518    -1.9302    -0.0341 H       
  14 H14            1.5265    -2.0919     2.1155 H       
  15 H15            0.0428    -2.5330     1.2366 H       
  16 H16            1.4468    -3.6268     1.2178 H       
  17 H17            1.4874    -2.0684    -2.1627 H       
  18 H18            1.4240    -3.6131    -1.2806 H       
  19 H19            0.0200    -2.5192    -1.2617 H       
  20 H20            0.9003     3.7193     0.5261 H       
  21 H21            2.6116     3.2299     0.5072 H       
  22 H22            2.5281     3.0333    -1.9633 H       
  23 H23            0.8168     3.5227    -1.9444 H       
  24 H24            2.7937     7.1784    -1.4323 H       
@<TRIPOS>BOND
   1    1    2 1
   2    1    5 1
   3    2    3 2
   4    3    4 1
   5    3    6 1
   6    4    5 2
   7    5    9 1
   8    6    7 1
   9    6    8 1
  10    6   13 1
  11    7   14 1
  12    7   15 1
  13    7   16 1
  14    8   17 1
  15    8   18 1
  16    8   19 1
  17    9   10 1
  18    9   20 1
  19    9   21 1
  20   10   11 1
  21   10   22 1
  22   10   23 1
  23   11   12 3
  24   12   24 1

#	End of record

