#	Name: ASD01811143
#	Creating user name:	WinNT
#	Creation time:	15. 06. 2019 19:26

#	Modifying user name:	WinNT
#	Modification time:	15. 06. 2019 19:26

#	Program:	/corina/corina34_cracker 3.40 0067  02.08.2006

@<TRIPOS>MOLECULE
ASD01811143
  56   59    0    0    0
SMALL
NO_CHARGES


@<TRIPOS>ATOM
   1 C1            -0.0167     1.3794     0.0096 C.ar    
   2 C2             0.0021    -0.0041     0.0020 C.ar    
   3 C3            -1.1811    -0.7175     0.0095 C.ar    
   4 C4            -2.3931    -0.0459     0.0247 C.ar    
   5 C5            -2.4109     1.3490     0.0323 C.ar    
   6 C6            -1.2202     2.0578     0.0305 C.ar    
   7 O7            -3.6822    -0.4650     0.0347 O.3     
   8 C8            -4.4934     0.6044     0.0482 C.2     
   9 N9            -3.7524     1.7301     0.0472 N.am    
  10 O10           -5.7087     0.5637     0.0596 O.2     
  11 C11           -4.2627     3.1033     0.0590 C.3     
  12 C12           -5.1284     3.3382    -1.1820 C.3     
  13 C13           -5.7079     4.7537    -1.1333 C.3     
  14 N14           -6.5130     4.9128     0.0844 N.3     
  15 C15           -5.6927     4.7385     1.2899 C.3     
  16 C16           -5.1128     3.3225     1.3135 C.3     
  17 C17           -8.7373     7.6949     1.3907 C.3     
  18 C18           -8.0244     6.3412     1.3778 C.3     
  19 C19           -7.1976     6.2125     0.0969 C.3     
  20 C20           -6.1601     7.3359     0.0445 C.3     
  21 C21           -6.8731     8.6895     0.0574 C.3     
  22 C22           -7.6999     8.8182     1.3383 C.3     
  23 O23           -8.3658    10.0825     1.3504 O.3     
  24 C24           -8.1212     6.3141    -1.1187 C.3     
  25 C25            1.2793     2.1485     0.0014 C.3     
  26 C26           -8.5861    10.6109     2.6598 C.3     
  27 H27            0.9460    -0.5287    -0.0102 H       
  28 H28           -1.1613    -1.7973     0.0031 H       
  29 H29           -1.2330     3.1377     0.0368 H       
  30 H30           -3.4267     3.8027     0.0576 H       
  31 H31           -4.5181     3.2254    -2.0780 H       
  32 H32           -5.9415     2.6125    -1.2011 H       
  33 H33           -4.8944     5.4792    -1.1281 H       
  34 H34           -6.3363     4.9192    -2.0084 H       
  35 H35           -4.8793     5.4641     1.2837 H       
  36 H36           -6.3102     4.8929     2.1748 H       
  37 H37           -5.9257     2.5966     1.3337 H       
  38 H38           -4.4914     3.1985     2.2004 H       
  39 H39           -9.3953     7.7673     0.5248 H       
  40 H40           -9.3264     7.7866     2.3033 H       
  41 H41           -7.3664     6.2688     2.2438 H       
  42 H42           -8.7634     5.5409     1.4151 H       
  43 H43           -5.5022     7.2635     0.9104 H       
  44 H44           -5.5711     7.2442    -0.8681 H       
  45 H45           -6.1341     9.4898     0.0201 H       
  46 H46           -7.5311     8.7619    -0.8086 H       
  47 H47           -7.0419     8.7458     2.2043 H       
  48 H48           -8.6291     7.2785    -1.1095 H       
  49 H49           -7.5321     6.2224    -2.0312 H       
  50 H50           -8.8602     5.5138    -1.0813 H       
  51 H51            1.5819     2.3395    -1.0282 H       
  52 H52            1.1425     3.0965     0.5216 H       
  53 H53            2.0508     1.5659     0.5047 H       
  54 H54           -9.2020     9.9175     3.2325 H       
  55 H55           -7.6286    10.7469     3.1625 H       
  56 H56           -9.0958    11.5713     2.5830 H       
@<TRIPOS>BOND
   1    1    2 ar
   2    1   25 1
   3    1    6 ar
   4    2    3 ar
   5    2   27 1
   6    3    4 ar
   7    3   28 1
   8    4    5 ar
   9    4    7 1
  10    5    6 ar
  11    5    9 1
  12    6   29 1
  13    7    8 1
  14    8    9 am
  15    8   10 2
  16    9   11 1
  17   11   12 1
  18   11   16 1
  19   11   30 1
  20   12   13 1
  21   12   31 1
  22   12   32 1
  23   13   14 1
  24   13   33 1
  25   13   34 1
  26   14   15 1
  27   14   19 1
  28   15   16 1
  29   15   35 1
  30   15   36 1
  31   16   37 1
  32   16   38 1
  33   17   18 1
  34   17   22 1
  35   17   39 1
  36   17   40 1
  37   18   19 1
  38   18   41 1
  39   18   42 1
  40   19   20 1
  41   19   24 1
  42   20   21 1
  43   20   43 1
  44   20   44 1
  45   21   22 1
  46   21   45 1
  47   21   46 1
  48   22   23 1
  49   22   47 1
  50   23   26 1
  51   24   48 1
  52   24   49 1
  53   24   50 1
  54   25   51 1
  55   25   52 1
  56   25   53 1
  57   26   54 1
  58   26   55 1
  59   26   56 1

#	End of record

