#	Name: ASD03720007
#	Creating user name:	WinNT
#	Creation time:	15. 06. 2019 20:43

#	Modifying user name:	WinNT
#	Modification time:	15. 06. 2019 20:43

#	Program:	/corina/corina34_cracker 3.40 0067  02.08.2006

@<TRIPOS>MOLECULE
ASD03720007
  61   63    0    0    0
SMALL
NO_CHARGES


@<TRIPOS>ATOM
   1 C1             0.3714     1.8654    -0.0661 C.3     
   2 C2             0.2674     0.3143    -0.1038 C.3     
   3 C3             1.8393     2.1704    -0.1067 C.2     
   4 C4            -0.3605     2.1821     1.2400 C.3     
   5 C5            -1.1874     0.0547     0.2558 C.3     
   6 C6             0.7654    -0.1445    -1.4543 C.3     
   7 C7             2.4475     2.8699     0.8452 C.2     
   8 C8             2.5825     1.6219    -1.3165 C.3     
   9 C9            -1.5884     1.2299     1.1852 C.3     
  10 C10           -2.0544     0.0543    -1.0048 C.3     
  11 C11            2.2760     0.1384    -1.5122 C.3     
  12 C12            3.8910     3.1385     0.7524 C.2     
  13 C13           -1.9290     1.4060    -1.7105 C.3     
  14 C14            4.4810     3.9177     1.6525 C.2     
  15 C15            5.9816     4.1006     1.6460 C.3     
  16 C16            3.6629     4.6419     2.6972 C.3     
  17 C17            6.2914     5.6008     1.5640 C.3     
  18 C18            3.9779     6.1409     2.6129 C.3     
  19 C19            5.4739     6.3201     2.6127 C.2     
  20 O20            5.9466     6.0917     0.2670 O.3     
  21 O21            3.4171     6.8132     3.7423 O.3     
  22 C22            1.1691    -0.2767     0.9818 C.3     
  23 C23           -3.5153    -0.1859    -0.6189 C.3     
  24 C24            6.0556     7.0883     3.5001 C.2     
  25 C25           -2.8238     1.4185    -2.9515 C.3     
  26 H26           -0.1382     2.3104    -0.9207 H       
  27 H27            0.2681     1.9528     2.1004 H       
  28 H28           -0.6802     3.2240     1.2607 H       
  29 H29           -1.2838    -0.8955     0.7811 H       
  30 H30            0.5843    -1.2129    -1.5721 H       
  31 H31            0.2551     0.4073    -2.2438 H       
  32 H32            1.8822     3.2412     1.6872 H       
  33 H33            2.2759     2.1722    -2.2060 H       
  34 H34            3.6547     1.7503    -1.1676 H       
  35 H35           -1.8173     0.8564     2.1833 H       
  36 H36           -2.4510     1.7545     0.7744 H       
  37 H37           -1.7207    -0.7378    -1.6751 H       
  38 H38            2.7748    -0.4336    -0.7298 H       
  39 H39            2.6599    -0.1787    -2.4818 H       
  40 H40            4.4711     2.7023    -0.0474 H       
  41 H41           -2.2385     2.2005    -1.0314 H       
  42 H42           -0.8927     1.5657    -2.0082 H       
  43 H43            6.4043     3.6892     2.5626 H       
  44 H44            6.4086     3.5911     0.7822 H       
  45 H45            2.6017     4.4798     2.5082 H       
  46 H46            3.9219     4.2688     3.6881 H       
  47 H47            7.3526     5.7660     1.7504 H       
  48 H48            3.5564     6.5523     1.6958 H       
  49 H49            6.1171     7.0358     0.1457 H       
  50 H50            3.5788     7.7665     3.7528 H       
  51 H51            0.8081     0.0332     1.9625 H       
  52 H52            1.1524    -1.3645     0.9156 H       
  53 H53            2.1893     0.0803     0.8408 H       
  54 H54           -3.8838     0.6638    -0.0441 H       
  55 H55           -4.1153    -0.3016    -1.5215 H       
  56 H56           -3.5877    -1.0911    -0.0160 H       
  57 H57            7.1284     7.2123     3.4868 H       
  58 H58            5.4624     7.5977     4.2451 H       
  59 H59           -2.5143     0.6240    -3.6305 H       
  60 H60           -3.8602     1.2588    -2.6538 H       
  61 H61           -2.7345     2.3815    -3.4542 H       
@<TRIPOS>BOND
   1    1    2 1
   2    1    3 1
   3    1    4 1
   4    1   26 1
   5    2    5 1
   6    2    6 1
   7    2   22 1
   8    3    7 2
   9    3    8 1
  10    4    9 1
  11    4   27 1
  12    4   28 1
  13    5   10 1
  14    5    9 1
  15    5   29 1
  16    6   11 1
  17    6   30 1
  18    6   31 1
  19    7   12 1
  20    7   32 1
  21    8   11 1
  22    8   33 1
  23    8   34 1
  24    9   35 1
  25    9   36 1
  26   10   13 1
  27   10   23 1
  28   10   37 1
  29   11   38 1
  30   11   39 1
  31   12   14 2
  32   12   40 1
  33   13   25 1
  34   13   41 1
  35   13   42 1
  36   14   15 1
  37   14   16 1
  38   15   17 1
  39   15   43 1
  40   15   44 1
  41   16   18 1
  42   16   45 1
  43   16   46 1
  44   17   19 1
  45   17   20 1
  46   17   47 1
  47   18   21 1
  48   18   19 1
  49   18   48 1
  50   19   24 2
  51   20   49 1
  52   21   50 1
  53   22   51 1
  54   22   52 1
  55   22   53 1
  56   23   54 1
  57   23   55 1
  58   23   56 1
  59   24   57 1
  60   24   58 1
  61   25   59 1
  62   25   60 1
  63   25   61 1

#	End of record

