#	Name: ASD01910172
#	Creating user name:	WinNT
#	Creation time:	15. 06. 2019 19:55

#	Modifying user name:	WinNT
#	Modification time:	15. 06. 2019 19:55

#	Program:	/corina/corina34_cracker 3.40 0067  02.08.2006

@<TRIPOS>MOLECULE
ASD01910172
  43   44    0    0    0
SMALL
NO_CHARGES


@<TRIPOS>ATOM
   1 C1            -0.2197     1.3791     0.0974 C.ar    
   2 C2             0.0359     0.0416     0.3299 C.ar    
   3 C3             1.3431    -0.4295     0.3198 C.ar    
   4 C4             2.3920     0.4448     0.0755 C.ar    
   5 C5             2.1320     1.7879    -0.1581 C.ar    
   6 C6             0.8228     2.2526    -0.1461 C.ar    
   7 N7             3.1867     2.6727    -0.4043 N.am    
   8 C8             4.2602     2.2622    -1.1082 C.2     
   9 C9             5.3253     3.2219    -1.4555 C.ar    
  10 N10            1.6011    -1.7843     0.5562 N.am    
  11 C11            0.7226    -2.7195     0.1441 C.2     
  12 C12            5.2253     4.5568    -1.0569 C.ar    
  13 C13            6.2240     5.4485    -1.3847 C.ar    
  14 C14            7.3271     5.0271    -2.1085 C.ar    
  15 C15            7.4384     3.7102    -2.5093 C.ar    
  16 C16            6.4465     2.7980    -2.1826 C.ar    
  17 O17           -0.2447    -2.3957    -0.5121 O.2     
  18 O18            4.3508     1.1009    -1.4570 O.2     
  19 O19            6.5546     1.5040    -2.5753 O.3     
  20 C20            7.7186     1.1484    -3.3240 C.3     
  21 C21            0.9420    -4.1677     0.4986 C.3     
  22 C22            0.9605    -4.3230     2.0206 C.3     
  23 C23           -0.1908    -5.0134    -0.0866 C.3     
  24 H24           -1.2369     1.7419     0.1017 H       
  25 H25           -0.7811    -0.6386     0.5200 H       
  26 H26            3.4089     0.0811     0.0675 H       
  27 H27            0.6197     3.2977    -0.3279 H       
  28 H28            3.1455     3.5818    -0.0684 H       
  29 H29            2.4123    -2.0503     1.0167 H       
  30 H30            4.3666     4.8900    -0.4930 H       
  31 H31            6.1458     6.4805    -1.0760 H       
  32 H32            8.1047     5.7327    -2.3612 H       
  33 H33            8.3013     3.3895    -3.0740 H       
  34 H34            7.6800     0.0881    -3.5739 H       
  35 H35            7.7546     1.7367    -4.2409 H       
  36 H36            8.6091     1.3491    -2.7284 H       
  37 H37            1.8946    -4.5020     0.0877 H       
  38 H38            0.0079    -3.9887     2.4315 H       
  39 H39            1.1192    -5.3705     2.2770 H       
  40 H40            1.7675    -3.7206     2.4376 H       
  41 H41           -0.2039    -4.9027    -1.1709 H       
  42 H42           -0.0320    -6.0608     0.1698 H       
  43 H43           -1.1434    -4.6790     0.3243 H       
@<TRIPOS>BOND
   1    1    2 ar
   2    1    6 ar
   3    1   24 1
   4    2    3 ar
   5    2   25 1
   6    3    4 ar
   7    3   10 1
   8    4    5 ar
   9    4   26 1
  10    5    6 ar
  11    5    7 1
  12    6   27 1
  13    7    8 am
  14    7   28 1
  15    8    9 1
  16    8   18 2
  17    9   12 ar
  18    9   16 ar
  19   10   11 am
  20   10   29 1
  21   11   17 2
  22   11   21 1
  23   12   13 ar
  24   12   30 1
  25   13   14 ar
  26   13   31 1
  27   14   15 ar
  28   14   32 1
  29   15   16 ar
  30   15   33 1
  31   16   19 1
  32   19   20 1
  33   20   34 1
  34   20   35 1
  35   20   36 1
  36   21   22 1
  37   21   23 1
  38   21   37 1
  39   22   38 1
  40   22   39 1
  41   22   40 1
  42   23   41 1
  43   23   42 1
  44   23   43 1

#	End of record

