#	Name: ASD00100152
#	Creating user name:	WinNT
#	Creation time:	15. 06. 2019 18:30

#	Modifying user name:	WinNT
#	Modification time:	15. 06. 2019 18:30

#	Program:	/corina/corina34_cracker 3.40 0067  02.08.2006

@<TRIPOS>MOLECULE
ASD00100152
  36   38    0    0    0
SMALL
NO_CHARGES


@<TRIPOS>ATOM
   1 C1             1.7857    -4.2035    -0.5456 C.2     
   2 C2             1.0065    -3.0954    -0.3632 C.2     
   3 C3             1.7015    -1.9255    -0.2147 C.2     
   4 C4             3.0588    -2.0556    -0.2728 C.2     
   5 S5             3.4825    -3.7428    -0.5284 S.3     
   6 C6             1.2949    -5.5377    -0.7183 C.1     
   7 N7             0.9056    -6.5961    -0.8553 N.1     
   8 C8             4.8294     1.0554     0.1227 C.2     
   9 N9             3.7198     0.3618     0.0556 N.2     
  10 C10            4.0252    -0.9471    -0.1417 C.2     
  11 C11            5.3797    -1.0543    -0.1970 C.2     
  12 N12            5.8858     0.2102    -0.0299 N.pl3   
  13 C13            7.3027     0.5826    -0.0189 C.3     
  14 C14            7.8037     0.6107     1.4021 C.ar    
  15 C15            8.2379    -0.5594     2.0085 C.ar    
  16 C16            8.6985    -0.5302     3.3166 C.ar    
  17 C17            8.7238     0.6632     4.0124 C.ar    
  18 C18            8.2901     1.8275     3.4061 C.ar    
  19 C19            7.8363     1.8021     2.1000 C.ar    
  20 O20            8.2117    -1.7320     1.3221 O.3     
  21 C21            8.6738    -2.8965     2.0095 C.3     
  22 N22            4.9135     2.4238     0.3119 N.pl3   
  23 H23           -0.0723    -3.1394    -0.3386 H       
  24 H24            1.2139    -0.9738    -0.0636 H       
  25 H25            5.9480    -1.9608    -0.3444 H       
  26 H26            7.8747    -0.1476    -0.5915 H       
  27 H27            7.4225     1.5694    -0.4660 H       
  28 H28            9.0367    -1.4396     3.7909 H       
  29 H29            9.0822     0.6865     5.0309 H       
  30 H30            8.3100     2.7592     3.9519 H       
  31 H31            7.5026     2.7138     1.6270 H       
  32 H32            8.5996    -3.7611     1.3499 H       
  33 H33            9.7127    -2.7545     2.3070 H       
  34 H34            8.0614    -3.0622     2.8958 H       
  35 H35            4.1051     2.9579     0.3562 H       
  36 H36            5.7810     2.8488     0.4003 H       
@<TRIPOS>BOND
   1    1    2 2
   2    1    5 1
   3    1    6 1
   4    2    3 1
   5    2   23 1
   6    3    4 2
   7    3   24 1
   8    4    5 1
   9    4   10 1
  10    6    7 3
  11    8    9 2
  12    8   12 1
  13    8   22 1
  14    9   10 1
  15   10   11 2
  16   11   12 1
  17   11   25 1
  18   12   13 1
  19   13   14 1
  20   13   26 1
  21   13   27 1
  22   14   15 ar
  23   14   19 ar
  24   15   16 ar
  25   15   20 1
  26   16   17 ar
  27   16   28 1
  28   17   18 ar
  29   17   29 1
  30   18   19 ar
  31   18   30 1
  32   19   31 1
  33   20   21 1
  34   21   32 1
  35   21   33 1
  36   21   34 1
  37   22   35 1
  38   22   36 1

#	End of record

