#	Name: ASD01811326
#	Creating user name:	WinNT
#	Creation time:	15. 06. 2019 19:26

#	Modifying user name:	WinNT
#	Modification time:	15. 06. 2019 19:26

#	Program:	/corina/corina34_cracker 3.40 0067  02.08.2006

@<TRIPOS>MOLECULE
ASD01811326
  65   69    0    0    0
SMALL
NO_CHARGES


@<TRIPOS>ATOM
   1 C1            -0.1929     1.6814    -1.1629 C.2     
   2 C2            -0.1595     0.2296    -1.4220 C.ar    
   3 C3             0.8639    -0.3310    -2.2021 C.ar    
   4 C4             0.8554    -1.6826    -2.4167 C.ar    
   5 C5            -0.1607    -2.4572    -1.8591 C.ar    
   6 N6            -1.1161    -1.9025    -1.1257 N.ar    
   7 C7            -1.1418    -0.6072    -0.8901 C.ar    
   8 O8             0.6702     2.4017    -1.6265 O.2     
   9 N9            -1.1831     2.2102    -0.4171 N.am    
  10 C10           -1.1613     3.5697    -0.0882 C.ar    
  11 C11           -2.3538     4.2705     0.0503 C.ar    
  12 C12           -2.3375     5.6136     0.3756 C.ar    
  13 C13           -1.1372     6.2682     0.5652 C.ar    
  14 C14            0.0657     5.5735     0.4285 C.ar    
  15 C15            0.0492     4.2166     0.1053 C.ar    
  16 C16           -3.6686     3.5635    -0.1556 C.3     
  17 C17            1.3529     6.2724     0.6306 C.2     
  18 O18            2.2227     5.7603     1.3078 O.2     
  19 N19            1.5618     7.4772     0.0638 N.am    
  20 C20            2.8685     8.1399     0.1740 C.3     
  21 C21            3.3575     8.5026    -1.2318 C.3     
  22 C22            2.2876     9.3366    -1.9403 C.3     
  23 C23            1.0030     8.5153    -2.0727 C.3     
  24 C24            0.4891     8.1501    -0.6813 C.3     
  25 F25            2.0276    10.4916    -1.1949 F       
  26 C26            2.7793     9.7241    -3.3111 C.ar    
  27 C27            2.1349    10.7250    -4.0163 C.ar    
  28 C28            2.5796    11.0847    -5.2716 C.ar    
  29 C29            3.6831    10.4365    -5.8300 C.ar    
  30 C30            4.3289     9.4276    -5.1126 C.ar    
  31 C31            3.8765     9.0812    -3.8563 C.ar    
  32 C32            4.1500    10.8044    -7.1328 C.1     
  33 N33            4.5205    11.0963    -8.1663 N.1     
  34 N34           -0.1727    -3.8249    -2.0745 N.3     
  35 C35           -1.3240    -4.4556    -1.4024 C.3     
  36 C36           -1.5065    -5.3263    -2.6535 C.3     
  37 C37           -0.8159    -4.1517    -3.3608 C.3     
  38 H38            1.6402     0.2902    -2.6238 H       
  39 H39            1.6284    -2.1447    -3.0127 H       
  40 H40           -1.9318    -0.1884    -0.2843 H       
  41 H41           -1.9109     1.6482    -0.1084 H       
  42 H42           -3.2672     6.1530     0.4815 H       
  43 H43           -1.1288     7.3179     0.8190 H       
  44 H44            0.9767     3.6729     0.0022 H       
  45 H45           -4.0118     3.1512     0.7933 H       
  46 H46           -4.4068     4.2715    -0.5323 H       
  47 H47           -3.5382     2.7565    -0.8765 H       
  48 H48            2.7694     9.0460     0.7716 H       
  49 H49            3.5821     7.4645     0.6461 H       
  50 H50            4.2793     9.0798    -1.1586 H       
  51 H51            3.5428     7.5906    -1.7992 H       
  52 H52            0.2490     9.1014    -2.5981 H       
  53 H53            1.2105     7.6031    -2.6322 H       
  54 H54           -0.3669     7.4815    -0.7732 H       
  55 H55            0.1920     9.0571    -0.1548 H       
  56 H56            1.2815    11.2255    -3.5832 H       
  57 H57            2.0753    11.8657    -5.8213 H       
  58 H58            5.1830     8.9222    -5.5387 H       
  59 H59            4.3776     8.3039    -3.2986 H       
  60 H60           -1.0499    -5.0244    -0.5138 H       
  61 H61           -2.1528    -3.7701    -1.2258 H       
  62 H62           -0.9236    -6.2473    -2.6452 H       
  63 H63           -2.5459    -5.4747    -2.9462 H       
  64 H64           -1.5091    -3.3850    -3.7068 H       
  65 H65           -0.1113    -4.4628    -4.1319 H       
@<TRIPOS>BOND
   1    1    2 1
   2    1    8 2
   3    1    9 am
   4    2    3 ar
   5    2    7 ar
   6    3    4 ar
   7    3   38 1
   8    4    5 ar
   9    4   39 1
  10    5    6 ar
  11    5   34 1
  12    6    7 ar
  13    7   40 1
  14    9   10 1
  15    9   41 1
  16   10   11 ar
  17   10   15 ar
  18   11   12 ar
  19   11   16 1
  20   12   13 ar
  21   12   42 1
  22   13   14 ar
  23   13   43 1
  24   14   15 ar
  25   14   17 1
  26   15   44 1
  27   16   45 1
  28   16   46 1
  29   16   47 1
  30   17   18 2
  31   17   19 am
  32   19   20 1
  33   19   24 1
  34   20   21 1
  35   20   48 1
  36   20   49 1
  37   21   22 1
  38   21   50 1
  39   21   51 1
  40   22   23 1
  41   22   25 1
  42   22   26 1
  43   23   24 1
  44   23   52 1
  45   23   53 1
  46   24   54 1
  47   24   55 1
  48   26   27 ar
  49   26   31 ar
  50   27   28 ar
  51   27   56 1
  52   28   29 ar
  53   28   57 1
  54   29   30 ar
  55   29   32 1
  56   30   31 ar
  57   30   58 1
  58   31   59 1
  59   32   33 3
  60   34   35 1
  61   34   37 1
  62   35   36 1
  63   35   60 1
  64   35   61 1
  65   36   37 1
  66   36   62 1
  67   36   63 1
  68   37   64 1
  69   37   65 1

#	End of record

