#	Name: ASD07300271
#	Creating user name:	WinNT
#	Creation time:	15. 06. 2019 21:09

#	Modifying user name:	WinNT
#	Modification time:	15. 06. 2019 21:09

#	Program:	/corina/corina34_cracker 3.40 0067  02.08.2006

@<TRIPOS>MOLECULE
ASD07300271
  27   27    0    0    0
SMALL
NO_CHARGES


@<TRIPOS>ATOM
   1 C1            -0.0362     1.4109    -0.9191 C.2     
   2 N2             1.3791    -0.5287    -0.5669 N.pl3   
   3 C3            -0.0096    -0.0646    -0.6137 C.3     
   4 O4             0.9988     2.0131    -1.0810 O.2     
   5 O5            -1.2097     2.0551    -1.0167 O.3     
   6 C6             1.6570    -1.8641    -0.2995 C.ar    
   7 C7             2.9769    -2.2760    -0.1439 C.ar    
   8 C8             3.2389    -3.6076     0.1222 C.ar    
   9 C9             2.1683    -4.4863     0.2243 C.ar    
  10 C10            0.8838    -4.0091     0.0586 C.ar    
  11 N11            0.6631    -2.7318    -0.1897 N.ar    
  12 N12            3.9917    -1.3847    -0.2522 N.pl3   
  13 O13            5.0321    -1.7095    -0.7958 O.2     
  14 O14            3.8635    -0.2587     0.1942 O.2     
  15 C15           -1.1593     3.4756    -1.3130 C.3     
  16 C16           -2.5826     4.0324    -1.3848 C.3     
  17 H17            2.1047     0.0960    -0.7224 H       
  18 H18           -0.4856    -0.2447     0.3502 H       
  19 H19           -0.5477    -0.6063    -1.3915 H       
  20 H20            4.2534    -3.9564     0.2475 H       
  21 H21            2.3390    -5.5325     0.4310 H       
  22 H22            0.0484    -4.6890     0.1368 H       
  23 H23           -0.6067     3.9912    -0.5277 H       
  24 H24           -0.6602     3.6297    -2.2697 H       
  25 H25           -3.1353     3.5168    -2.1702 H       
  26 H26           -3.0817     3.8783    -0.4281 H       
  27 H27           -2.5448     5.0988    -1.6073 H       
@<TRIPOS>BOND
   1    1    3 1
   2    1    4 2
   3    1    5 1
   4    2    3 1
   5    2    6 1
   6    2   17 1
   7    3   18 1
   8    3   19 1
   9    5   15 1
  10    6    7 ar
  11    6   11 ar
  12    7    8 ar
  13    7   12 1
  14    8    9 ar
  15    8   20 1
  16    9   10 ar
  17    9   21 1
  18   10   11 ar
  19   10   22 1
  20   12   13 2
  21   12   14 2
  22   15   16 1
  23   15   23 1
  24   15   24 1
  25   16   25 1
  26   16   26 1
  27   16   27 1

#	End of record

