#	Name: ASD07930059
#	Creating user name:	WinNT
#	Creation time:	15. 06. 2019 21:11

#	Modifying user name:	WinNT
#	Modification time:	15. 06. 2019 21:11

#	Program:	/corina/corina34_cracker 3.40 0067  02.08.2006

@<TRIPOS>MOLECULE
ASD07930059
  51   53    0    0    0
SMALL
NO_CHARGES


@<TRIPOS>ATOM
   1 C1            -0.5562     1.9784    -0.1765 C.ar    
   2 C2             0.9170     2.2716    -0.0554 C.3     
   3 C3             1.1199     3.6882     0.4915 C.3     
   4 C4             0.8314     4.7004    -0.5820 C.2     
   5 N5             0.8750     4.3972    -1.8876 N.am    
   6 C6             1.1293     3.1174    -2.3141 C.2     
   7 N7             1.5501     2.2005    -1.3846 N.pl3   
   8 C8             1.5708     1.2561     0.8838 C.3     
   9 N9             0.9728     2.7777    -3.5852 N.2     
  10 O10            0.5485     5.8331    -0.2552 O.2     
  11 C11            0.6463     5.4522    -2.8780 C.3     
  12 C12           -1.0401     1.3119    -1.2892 C.ar    
  13 C13           -2.3935     1.0426    -1.4004 C.ar    
  14 C14           -3.2628     1.4394    -0.3988 C.ar    
  15 C15           -2.7787     2.1051     0.7143 C.ar    
  16 C16           -1.4248     2.3705     0.8276 C.ar    
  17 C17            2.5445     3.8453     0.9572 C.ar    
  18 C18            2.8097     4.1562     2.2778 C.ar    
  19 C19            4.1165     4.3003     2.7049 C.ar    
  20 C20            5.1580     4.1331     1.8116 C.ar    
  21 C21            4.8929     3.8213     0.4912 C.ar    
  22 C22            3.5862     3.6730     0.0650 C.ar    
  23 F23           -0.1918     0.9247    -2.2667 F       
  24 F24           -0.9524     3.0201     1.9139 F       
  25 F25           -4.5836     1.1774    -0.5078 F       
  26 S26            6.8691     4.3230     2.3706 Du      
  27 F27            8.3910     4.4919     2.8678 F       
  28 F28            7.2782     2.9861     1.5722 F       
  29 F29            6.4599     5.6599     3.1689 F       
  30 F30            7.1982     5.2040     1.0638 F       
  31 F31            6.5399     3.4419     3.6773 F       
  32 C32            0.2689     3.5603    -4.4023 C.2     
  33 C33            0.8729     4.0317    -5.7000 C.3     
  34 F34           -0.0500     4.8339    -6.3797 F       
  35 F35            2.0288     4.7736    -5.4341 F       
  36 F36            1.2005     2.9253    -6.4910 F       
  37 O37           -0.8602     3.8940    -4.1010 O.2     
  38 H38            0.4461     3.8511     1.3327 H       
  39 H39            2.2298     1.5402    -1.5917 H       
  40 H40            1.3546     0.2464     0.5346 H       
  41 H41            2.6494     1.4134     0.8950 H       
  42 H42            1.1744     1.3849     1.8909 H       
  43 H43            0.9667     6.4103    -2.4688 H       
  44 H44            1.2170     5.2333    -3.7804 H       
  45 H45           -0.4152     5.4979    -3.1215 H       
  46 H46           -2.7711     0.5233    -2.2688 H       
  47 H47           -3.4570     2.4149     1.4955 H       
  48 H48            1.9959     4.2868     2.9757 H       
  49 H49            4.3237     4.5439     3.7365 H       
  50 H50            5.7066     3.6911    -0.2068 H       
  51 H51            3.3790     3.4294    -0.9665 H       
@<TRIPOS>BOND
   1    1   12 ar
   2    1    2 1
   3    1   16 ar
   4    2    8 1
   5    2    3 1
   6    2    7 1
   7    3    4 1
   8    3   17 1
   9    3   38 1
  10    4    5 am
  11    4   10 2
  12    5    6 1
  13    5   11 1
  14    6    7 1
  15    6    9 2
  16    7   39 1
  17    8   40 1
  18    8   41 1
  19    8   42 1
  20    9   32 1
  21   11   43 1
  22   11   44 1
  23   11   45 1
  24   12   13 ar
  25   12   23 1
  26   13   14 ar
  27   13   46 1
  28   14   15 ar
  29   14   25 1
  30   15   16 ar
  31   15   47 1
  32   16   24 1
  33   17   18 ar
  34   17   22 ar
  35   18   19 ar
  36   18   48 1
  37   19   20 ar
  38   19   49 1
  39   20   21 ar
  40   20   26 1
  41   21   22 ar
  42   21   50 1
  43   22   51 1
  44   26   27 1
  45   26   28 1
  46   26   29 1
  47   26   30 1
  48   26   31 1
  49   32   33 1
  50   32   37 2
  51   33   34 1
  52   33   35 1
  53   33   36 1

#	End of record

