#	Name: ASD03430784
#	Creating user name:	WinNT
#	Creation time:	15. 06. 2019 20:41

#	Modifying user name:	WinNT
#	Modification time:	15. 06. 2019 20:41

#	Program:	/corina/corina34_cracker 3.40 0067  02.08.2006

@<TRIPOS>MOLECULE
ASD03430784
  38   42    0    0    0
SMALL
NO_CHARGES


@<TRIPOS>ATOM
   1 C1            -0.0167     1.3821     0.0096 C.ar    
   2 C2             0.0021    -0.0041     0.0020 C.ar    
   3 C3             1.2028    -0.6819    -0.0155 C.ar    
   4 C4             2.4086     0.0128    -0.0153 C.ar    
   5 C5             2.3860     1.4038    -0.0117 C.ar    
   6 C6             1.1815     2.0868     0.0020 C.ar    
   7 C7             1.5510    -2.1458    -0.0497 C.3     
   8 C8             3.0366    -2.1460    -0.4355 C.3     
   9 C9             0.4271    -3.8613     1.0063 C.ar    
  10 C10            1.3146    -2.8203     1.2689 C.ar    
  11 C11            0.7178    -2.9064    -1.0410 C.2     
  12 N12            0.0983    -3.8849    -0.3512 N.am    
  13 O13            0.6211    -2.6837    -2.2293 O.2     
  14 C14            1.7789    -2.6011     2.5463 C.ar    
  15 C15            1.3656    -3.4184     3.5838 C.ar    
  16 C16            0.4853    -4.4550     3.3345 C.ar    
  17 C17            0.0168    -4.6786     2.0562 C.ar    
  18 O18            3.4714    -0.8419    -0.0051 O.3     
  19 O19           -1.2112     2.0356     0.0189 O.3     
  20 C20           -1.1867     3.4165     0.3964 C.3     
  21 C21           -0.0349     4.0988    -0.3540 C.3     
  22 O22            1.1866     3.4484     0.0115 O.3     
  23 C23            1.8742    -3.1793     4.9821 C.3     
  24 H24           -0.9268    -0.5549     0.0102 H       
  25 H25            3.3147     1.9551    -0.0193 H       
  26 H26            3.5750    -2.9292     0.0982 H       
  27 H27            3.1566    -2.2578    -1.5131 H       
  28 H28           -0.5057    -4.5301    -0.7508 H       
  29 H29            2.4666    -1.7910     2.7388 H       
  30 H30            0.1632    -5.0930     4.1443 H       
  31 H31           -0.6705    -5.4904     1.8693 H       
  32 H32           -2.1316     3.8882     0.1268 H       
  33 H33           -1.0264     3.5010     1.4712 H       
  34 H34           -0.1915     4.0079    -1.4288 H       
  35 H35            0.0118     5.1519    -0.0766 H       
  36 H36            1.2049    -2.4920     5.4996 H       
  37 H37            1.9117    -4.1255     5.5218 H       
  38 H38            2.8739    -2.7473     4.9361 H       
@<TRIPOS>BOND
   1    1    2 ar
   2    1    6 ar
   3    1   19 1
   4    2    3 ar
   5    2   24 1
   6    3    4 ar
   7    3    7 1
   8    4    5 ar
   9    4   18 1
  10    5    6 ar
  11    5   25 1
  12    6   22 1
  13    7    8 1
  14    7   10 1
  15    7   11 1
  16    8   18 1
  17    8   26 1
  18    8   27 1
  19    9   10 ar
  20    9   12 1
  21    9   17 ar
  22   10   14 ar
  23   11   12 am
  24   11   13 2
  25   12   28 1
  26   14   15 ar
  27   14   29 1
  28   15   16 ar
  29   15   23 1
  30   16   17 ar
  31   16   30 1
  32   17   31 1
  33   19   20 1
  34   20   21 1
  35   20   32 1
  36   20   33 1
  37   21   22 1
  38   21   34 1
  39   21   35 1
  40   23   36 1
  41   23   37 1
  42   23   38 1

#	End of record

