#	Name: ASD02560328
#	Creating user name:	WinNT
#	Creation time:	15. 06. 2019 20:25

#	Modifying user name:	WinNT
#	Modification time:	15. 06. 2019 20:25

#	Program:	/corina/corina34_cracker 3.40 0067  02.08.2006

@<TRIPOS>MOLECULE
ASD02560328
  33   35    0    0    0
SMALL
NO_CHARGES


@<TRIPOS>ATOM
   1 C1            -0.0162     1.3431     0.0094 C.2     
   2 O2             0.0021    -0.0041     0.0020 O.3     
   3 C3            -1.2846    -0.3996     0.0122 C.2     
   4 N4            -2.0240     0.6828     0.0250 N.2     
   5 N5            -1.2614     1.7190     0.0290 N.2     
   6 N6            -1.7414    -1.7050     0.0091 N.pl3   
   7 C7             1.1875     2.2499     0.0028 C.3     
   8 C8             1.6023     2.5445     1.4213 C.ar    
   9 C9             2.5134     1.7230     2.0606 C.ar    
  10 C10            2.8942     1.9943     3.3628 C.ar    
  11 C11            2.3644     3.0859     4.0249 C.ar    
  12 C12            1.4537     3.9067     3.3868 C.ar    
  13 C13            1.0764     3.6398     2.0827 C.ar    
  14 C14           -3.1128    -1.9645     0.0209 C.2     
  15 C15           -4.0991    -1.0340     0.0352 C.2     
  16 Cl16           3.1784     0.3517     1.2294 Cl      
  17 Cl17          -0.0670     4.6712     1.2812 Cl      
  18 C18           -5.3289    -1.7226     0.0425 C.2     
  19 C19           -5.0557    -3.0422     0.0324 C.2     
  20 N20           -3.6952    -3.1996     0.0139 N.pl3   
  21 C21           -2.9832    -4.4798    -0.0017 C.3     
  22 H22           -1.1088    -2.4403    -0.0012 H       
  23 H23            2.0082     1.7604    -0.5215 H       
  24 H24            0.9373     3.1821    -0.5037 H       
  25 H25            3.6052     1.3529     3.8622 H       
  26 H26            2.6619     3.2972     5.0414 H       
  27 H27            1.0395     4.7591     3.9049 H       
  28 H28           -3.9666     0.0378     0.0407 H       
  29 H29           -6.3114    -1.2743     0.0543 H       
  30 H30           -5.7846    -3.8391     0.0344 H       
  31 H31           -2.8204    -4.7925    -1.0331 H       
  32 H32           -2.0221    -4.3672     0.4999 H       
  33 H33           -3.5775    -5.2324     0.5166 H       
@<TRIPOS>BOND
   1    1    2 1
   2    1    7 1
   3    1    5 2
   4    2    3 1
   5    3    4 2
   6    3    6 1
   7    4    5 1
   8    6   14 1
   9    6   22 1
  10    7    8 1
  11    7   23 1
  12    7   24 1
  13    8    9 ar
  14    8   13 ar
  15    9   10 ar
  16    9   16 1
  17   10   11 ar
  18   10   25 1
  19   11   12 ar
  20   11   26 1
  21   12   13 ar
  22   12   27 1
  23   13   17 1
  24   14   15 2
  25   14   20 1
  26   15   18 1
  27   15   28 1
  28   18   19 2
  29   18   29 1
  30   19   20 1
  31   19   30 1
  32   20   21 1
  33   21   31 1
  34   21   32 1
  35   21   33 1

#	End of record

