#	Name: ASD01260013
#	Creating user name:	WinNT
#	Creation time:	15. 06. 2019 19:15

#	Modifying user name:	WinNT
#	Modification time:	15. 06. 2019 19:15

#	Program:	/corina/corina34_cracker 3.40 0067  02.08.2006

@<TRIPOS>MOLECULE
ASD01260013
  29   29    0    0    0
SMALL
NO_CHARGES


@<TRIPOS>ATOM
   1 P1            -0.0180     1.4758     0.0102 P.3     
   2 O2             0.0021    -0.0041     0.0020 O.2     
   3 O3             1.4924     2.0330    -0.0013 O.3     
   4 O4            -0.7967     2.0091    -1.2942 O.3     
   5 C5            -0.1794     5.4346     5.1343 C.3     
   6 O6             0.1503     6.2841     4.0335 O.3     
   7 C7            -0.1008     3.9722     4.6914 C.3     
   8 O8             1.2130     3.6594     4.2245 O.3     
   9 C9            -0.5070     3.0280     5.8515 C.3     
  10 O10           -1.5748     3.5905     6.6167 O.3     
  11 C11           -0.9781     1.7643     5.0914 C.3     
  12 O12           -2.1451     1.2161     5.7074 O.3     
  13 C13           -1.3055     2.2756     3.6750 C.3     
  14 O14           -1.0826     3.6971     3.6691 O.3     
  15 C15           -0.3850     1.6043     2.6538 C.3     
  16 O16           -0.7716     1.9950     1.3348 O.3     
  17 H17            1.5557     2.9980     0.0033 H       
  18 H18           -0.3973     1.7338    -2.1307 H       
  19 H19            0.5243     5.6059     5.9489 H       
  20 H20           -1.1906     5.6573     5.4748 H       
  21 H21            0.1209     7.2278     4.2423 H       
  22 H22            1.5035     4.1989     3.4764 H       
  23 H23            0.3488     2.8033     6.4880 H       
  24 H24           -1.8644     3.0364     7.3544 H       
  25 H25           -0.1815     1.0212     5.0562 H       
  26 H26           -2.0105     0.9317     6.6218 H       
  27 H27           -2.3470     2.0616     3.4352 H       
  28 H28            0.6450     1.9108     2.8364 H       
  29 H29           -0.4642     0.5214     2.7499 H       
@<TRIPOS>BOND
   1    1    2 2
   2    1    3 1
   3    1    4 1
   4    1   16 1
   5    3   17 1
   6    4   18 1
   7    5    6 1
   8    5    7 1
   9    5   19 1
  10    5   20 1
  11    6   21 1
  12    7    8 1
  13    7    9 1
  14    7   14 1
  15    8   22 1
  16    9   10 1
  17    9   11 1
  18    9   23 1
  19   10   24 1
  20   11   12 1
  21   11   13 1
  22   11   25 1
  23   12   26 1
  24   13   14 1
  25   13   15 1
  26   13   27 1
  27   15   16 1
  28   15   28 1
  29   15   29 1

#	End of record

