#	Name: ASD00844938
#	Creating user name:	WinNT
#	Creation time:	15. 06. 2019 18:51

#	Modifying user name:	WinNT
#	Modification time:	15. 06. 2019 18:51

#	Program:	/corina/corina34_cracker 3.40 0067  02.08.2006

@<TRIPOS>MOLECULE
ASD00844938
  94   99    0    0    0
SMALL
NO_CHARGES


@<TRIPOS>ATOM
   1 F1             5.6827    -2.3986    -1.8835 F       
   2 C2             0.8322     1.1979    -0.3538 C.ar    
   3 C3             1.0306    -0.1457    -0.6359 C.ar    
   4 C4             0.8493    -1.0953     0.3594 C.ar    
   5 C5             0.4718    -0.7009     1.6281 C.ar    
   6 C6             0.2742     0.6392     1.9067 C.ar    
   7 C7             0.4547     1.5873     0.9170 C.ar    
   8 C8             1.0635    -2.5559     0.0562 C.3     
   9 C9             0.6792    -3.4068     1.2478 C.2     
  10 C10            0.2603    -2.9690    -1.1787 C.3     
  11 C11           -1.1895    -2.6098    -0.9783 C.2     
  12 N12           -2.1074    -2.9761    -1.8946 N.am    
  13 O13           -1.5302    -1.9910     0.0076 O.2     
  14 C14           -3.5076    -2.5415    -1.7761 C.3     
  15 C15           -3.9391    -1.9210    -3.1091 C.3     
  16 N16           -3.6739    -2.8719    -4.1969 N.3     
  17 C17           -2.2370    -3.1502    -4.3228 C.3     
  18 C18           -1.7344    -3.8161    -3.0428 C.3     
  19 C19           -4.2295    -2.3868    -5.4673 C.3     
  20 C20           -3.8278    -3.3382    -6.5979 C.3     
  21 C21           -4.4596    -2.8615    -7.9077 C.3     
  22 N22           -5.9209    -2.8312    -7.7652 N.3     
  23 C23           -6.3327    -1.8887    -6.7171 C.3     
  24 C24           -5.7568    -2.3363    -5.3717 C.3     
  25 C25           -6.5681    -2.5115    -9.0446 C.3     
  26 O26           -0.4200    -3.4818     1.7549 O.2     
  27 N27            1.7845    -4.0637     1.6380 N.am    
  28 C28            2.5335    -2.8451    -0.1437 C.ar    
  29 C29            2.8902    -3.7565     0.8423 C.ar    
  30 C30            3.4611    -2.3900    -1.0538 C.ar    
  31 C31            4.7694    -2.8421    -0.9922 C.ar    
  32 C32            5.1377    -3.7519    -0.0126 C.ar    
  33 C33            4.2066    -4.2083     0.9004 C.ar    
  34 F34            6.4129    -4.1940     0.0492 F       
  35 C35            1.4548    -6.7182     2.2856 C.ar    
  36 C36            0.2003    -6.9785     1.7542 C.ar    
  37 C37            2.4116    -7.7145     2.3152 C.ar    
  38 C38            2.1196    -8.9699     1.8154 C.ar    
  39 C39            0.8696    -9.2320     1.2850 C.ar    
  40 C40           -0.0905    -8.2395     1.2535 C.ar    
  41 H41            0.6439   -10.2136     0.8951 H       
  42 O42           -0.7426    -6.0003     1.7243 O.3     
  43 C43           -2.0120    -6.3398     1.1626 C.3     
  44 C44           -2.9355    -5.1210     1.2154 C.3     
  45 C45           -8.0771    -2.7318    -8.9219 C.3     
  46 O46            1.4016    -0.5313    -1.8851 O.3     
  47 C47            1.4861     0.4900    -2.8810 C.3     
  48 C48            2.0051    -0.1135    -4.1877 C.3     
  49 F49            3.2322    -0.7440    -3.9551 F       
  50 F50            1.0832    -1.0500    -4.6674 F       
  51 S51            1.8303    -5.1161     2.9157 S.o2    
  52 O52            3.1828    -5.1623     3.3492 O.2     
  53 O53            0.7523    -4.7579     3.7695 O.2     
  54 H54            0.9771     1.9393    -1.1256 H       
  55 H55            0.3305    -1.4396     2.4031 H       
  56 H56           -0.0217     0.9455     2.8992 H       
  57 H57            0.2997     2.6332     1.1371 H       
  58 H58            0.6462    -2.4471    -2.0544 H       
  59 H59            0.3507    -4.0449    -1.3278 H       
  60 H60           -4.1397    -3.4003    -1.5503 H       
  61 H61           -3.5948    -1.8002    -0.9818 H       
  62 H62           -5.0047    -1.6936    -3.0764 H       
  63 H63           -3.3763    -1.0037    -3.2824 H       
  64 H64           -2.0681    -3.8144    -5.1704 H       
  65 H65           -1.6979    -2.2159    -4.4793 H       
  66 H66           -0.6502    -3.9200    -3.0856 H       
  67 H67           -2.1952    -4.7980    -2.9356 H       
  68 H68           -3.8434    -1.3891    -5.6764 H       
  69 H69           -2.7425    -3.3456    -6.6989 H       
  70 H70           -4.1795    -4.3442    -6.3691 H       
  71 H71           -4.0968    -1.8610    -8.1429 H       
  72 H72           -4.1873    -3.5449    -8.7120 H       
  73 H73           -5.9611    -0.8927    -6.9579 H       
  74 H74           -7.4208    -1.8655    -6.6567 H       
  75 H75           -6.1389    -3.3265    -5.1237 H       
  76 H76           -6.0497    -1.6280    -4.5968 H       
  77 H77           -6.3725    -1.4702    -9.3005 H       
  78 H78           -6.1687    -3.1587    -9.8255 H       
  79 H79            3.1692    -1.6818    -1.8150 H       
  80 H80            4.5001    -4.9165     1.6611 H       
  81 H81            3.3885    -7.5123     2.7289 H       
  82 H82            2.8690    -9.7472     1.8388 H       
  83 H83           -1.0667    -8.4449     0.8399 H       
  84 H84           -1.8794    -6.6505     0.1263 H       
  85 H85           -2.4550    -7.1563     1.7329 H       
  86 H86           -2.4925    -4.3045     0.6452 H       
  87 H87           -3.9037    -5.3799     0.7870 H       
  88 H88           -3.0681    -4.8103     2.2518 H       
  89 H89           -8.5573    -2.4946    -9.8712 H       
  90 H90           -8.2727    -3.7731    -8.6660 H       
  91 H91           -8.4764    -2.0846    -8.1410 H       
  92 H92            0.4978     0.9190    -3.0463 H       
  93 H93            2.1692     1.2700    -2.5445 H       
  94 H94            2.1372     0.6774    -4.9260 H       
@<TRIPOS>BOND
   1    1   31 1
   2    2    3 ar
   3    2    7 ar
   4    2   54 1
   5    3    4 ar
   6    3   46 1
   7    4    5 ar
   8    4    8 1
   9    5    6 ar
  10    5   55 1
  11    6    7 ar
  12    6   56 1
  13    7   57 1
  14    8    9 1
  15    8   10 1
  16    8   28 1
  17    9   26 2
  18    9   27 am
  19   10   11 1
  20   10   58 1
  21   10   59 1
  22   11   12 am
  23   11   13 2
  24   12   14 1
  25   12   18 1
  26   14   15 1
  27   14   60 1
  28   14   61 1
  29   15   16 1
  30   15   62 1
  31   15   63 1
  32   16   17 1
  33   16   19 1
  34   17   18 1
  35   17   64 1
  36   17   65 1
  37   18   66 1
  38   18   67 1
  39   19   20 1
  40   19   24 1
  41   19   68 1
  42   20   21 1
  43   20   69 1
  44   20   70 1
  45   21   22 1
  46   21   71 1
  47   21   72 1
  48   22   23 1
  49   22   25 1
  50   23   24 1
  51   23   73 1
  52   23   74 1
  53   24   75 1
  54   24   76 1
  55   25   45 1
  56   25   77 1
  57   25   78 1
  58   27   51 am
  59   27   29 1
  60   28   29 ar
  61   28   30 ar
  62   29   33 ar
  63   30   31 ar
  64   30   79 1
  65   31   32 ar
  66   32   33 ar
  67   32   34 1
  68   33   80 1
  69   35   36 ar
  70   35   37 ar
  71   35   51 1
  72   36   42 1
  73   36   40 ar
  74   37   38 ar
  75   37   81 1
  76   38   39 ar
  77   38   82 1
  78   39   40 ar
  79   39   41 1
  80   40   83 1
  81   42   43 1
  82   43   44 1
  83   43   84 1
  84   43   85 1
  85   44   86 1
  86   44   87 1
  87   44   88 1
  88   45   89 1
  89   45   90 1
  90   45   91 1
  91   46   47 1
  92   47   48 1
  93   47   92 1
  94   47   93 1
  95   48   49 1
  96   48   50 1
  97   48   94 1
  98   51   52 2
  99   51   53 2

#	End of record

