#	Name: ASD01915725
#	Creating user name:	WinNT
#	Creation time:	15. 06. 2019 20:06

#	Modifying user name:	WinNT
#	Modification time:	15. 06. 2019 20:06

#	Program:	/corina/corina34_cracker 3.40 0067  02.08.2006

@<TRIPOS>MOLECULE
ASD01915725
  43   46    0    0    0
SMALL
NO_CHARGES


@<TRIPOS>ATOM
   1 C1            -0.0087     1.4173     0.0997 C.2     
   2 N2             0.0285     0.0456    -0.0148 N.pl3   
   3 C3            -1.2049    -0.7398    -0.1428 C.3     
   4 C4            -2.3389    -0.0222     0.5874 C.3     
   5 N5            -2.4044     1.3988     0.2637 N.am    
   6 C6            -1.2833     2.1497     0.1396 C.2     
   7 C7             1.2863     1.8478     0.1719 C.2     
   8 C8             2.0605     0.6815     0.1071 C.2     
   9 N9             1.2440    -0.3411     0.0027 N.2     
  10 C10            3.5653     0.6131     0.1501 C.3     
  11 O11            4.0989     1.9334     0.2687 O.3     
  12 C12            5.4524     2.0497     0.3211 C.ar    
  13 O13           -1.3287     3.3630     0.0653 O.2     
  14 C14            6.0376     3.3020     0.4362 C.ar    
  15 C15            6.2492     0.9157     0.2652 C.ar    
  16 C16            7.6245     1.0353     0.3185 C.ar    
  17 C17            8.2075     2.2864     0.4280 C.ar    
  18 C18            7.4131     3.4187     0.4892 C.ar    
  19 C19           -3.6493     1.9980     0.0772 C.ar    
  20 N20           -4.2859     2.5414     1.1038 N.ar    
  21 C21           -4.2282     2.0326    -1.1959 C.ar    
  22 N22           -5.4097     2.6034    -1.3651 N.ar    
  23 C23           -6.0402     3.1392    -0.3318 C.ar    
  24 C24           -5.4673     3.1098     0.9237 C.ar    
  25 F25            9.5525     2.4019     0.4809 F       
  26 O26           -3.5797     1.4829    -2.2540 O.3     
  27 C27           -4.2316     1.5556    -3.5235 C.3     
  28 H28           -1.4608    -0.8460    -1.1971 H       
  29 H29           -1.0557    -1.7259     0.2969 H       
  30 H30           -3.2850    -0.4895     0.3144 H       
  31 H31           -2.1911    -0.1322     1.6617 H       
  32 H32            1.6369     2.8655     0.2595 H       
  33 H33            3.8776     0.0166     1.0073 H       
  34 H34            3.9345     0.1530    -0.7665 H       
  35 H35            5.4182     4.1855     0.4839 H       
  36 H36            5.7947    -0.0603     0.1804 H       
  37 H37            8.2452     0.1526     0.2750 H       
  38 H38            7.8692     4.3940     0.5747 H       
  39 H39           -7.0046     3.6046    -0.4723 H       
  40 H40           -5.9868     3.5487     1.7626 H       
  41 H41           -5.1913     1.0418    -3.4691 H       
  42 H42           -4.3933     2.6002    -3.7896 H       
  43 H43           -3.6074     1.0804    -4.2802 H       
@<TRIPOS>BOND
   1    1    2 1
   2    1    7 2
   3    1    6 1
   4    2    3 1
   5    2    9 1
   6    3    4 1
   7    3   28 1
   8    3   29 1
   9    4    5 1
  10    4   30 1
  11    4   31 1
  12    5    6 am
  13    5   19 1
  14    6   13 2
  15    7    8 1
  16    7   32 1
  17    8    9 2
  18    8   10 1
  19   10   11 1
  20   10   33 1
  21   10   34 1
  22   11   12 1
  23   12   14 ar
  24   12   15 ar
  25   14   18 ar
  26   14   35 1
  27   15   16 ar
  28   15   36 1
  29   16   17 ar
  30   16   37 1
  31   17   18 ar
  32   17   25 1
  33   18   38 1
  34   19   20 ar
  35   19   21 ar
  36   20   24 ar
  37   21   22 ar
  38   21   26 1
  39   22   23 ar
  40   23   24 ar
  41   23   39 1
  42   24   40 1
  43   26   27 1
  44   27   41 1
  45   27   42 1
  46   27   43 1

#	End of record

