#	Name: ASD09740554
#	Creating user name:	WinNT
#	Creation time:	15. 06. 2019 21:23

#	Modifying user name:	WinNT
#	Modification time:	15. 06. 2019 21:23

#	Program:	/corina/corina34_cracker 3.40 0067  02.08.2006

@<TRIPOS>MOLECULE
ASD09740554
  63   67    0    0    0
SMALL
NO_CHARGES


@<TRIPOS>ATOM
   1 N1            -0.0053     1.1012     0.7030 N.2     
   2 C2            -0.0282    -0.1892     0.9262 C.2     
   3 C3             1.1274     1.7183     0.8910 C.2     
   4 S4             2.3417     0.5555     1.4166 S.3     
   5 C5             1.1412    -0.7320     1.3299 C.2     
   6 C6             1.3568     3.1646     0.6935 C.ar    
   7 C7             0.3122     3.9844     0.2731 C.ar    
   8 C8             2.6209     3.7112     0.9342 C.ar    
   9 C9             2.8403     5.0596     0.7521 C.ar    
  10 C10            1.8083     5.8848     0.3290 C.ar    
  11 C11            0.5343     5.3481     0.0889 C.ar    
  12 O12            2.0297     7.2115     0.1521 O.3     
  13 C13            3.3748     7.6703     0.3014 C.3     
  14 C14            3.5622     8.9666    -0.4895 C.3     
  15 C15            3.6640     7.9294     1.7813 C.3     
  16 C16           -0.5326     6.1973    -0.3483 C.1     
  17 N17           -1.3790     6.8710    -0.6952 N.1     
  18 C18            1.3734    -2.1574     1.6442 C.ar    
  19 C19            2.4583    -2.8316     1.0762 C.ar    
  20 C20            2.6695    -4.1622     1.3736 C.ar    
  21 C21            1.8067    -4.8243     2.2332 C.ar    
  22 C22            0.7321    -4.1620     2.7972 C.ar    
  23 C23            0.5134    -2.8303     2.5126 C.ar    
  24 C24            3.5275    -2.3426     0.1231 C.3     
  25 C25            4.6580    -3.3896     0.2134 C.3     
  26 C26            3.8962    -4.6622     0.6406 C.3     
  27 N27            3.5030    -5.4388    -0.5377 N.am    
  28 C28            3.2964    -6.7664    -0.4315 C.2     
  29 N29            2.8263    -7.4618    -1.4860 N.am    
  30 O30            3.5342    -7.3369     0.6156 O.2     
  31 C31            2.6485    -6.8199    -2.7982 C.3     
  32 C32            3.3312    -7.6909    -3.8589 C.3     
  33 O33            2.8580    -9.0347    -3.7402 O.3     
  34 C34            3.1671    -9.6558    -2.4902 C.3     
  35 C35            2.4814    -8.8868    -1.3607 C.3     
  36 H36           -0.9228    -0.7801     0.7965 H       
  37 H37           -0.6660     3.5649     0.0901 H       
  38 H38            3.4283     3.0745     1.2645 H       
  39 H39            3.8191     5.4756     0.9398 H       
  40 H40            4.0612     6.9122    -0.0757 H       
  41 H41            2.8758     9.7247    -0.1124 H       
  42 H42            4.5882     9.3166    -0.3756 H       
  43 H43            3.3561     8.7820    -1.5438 H       
  44 H44            4.6900     8.2794     1.8951 H       
  45 H45            2.9776     8.6875     2.1583 H       
  46 H46            3.5305     7.0059     2.3447 H       
  47 H47            1.9751    -5.8658     2.4639 H       
  48 H48            0.0655    -4.6871     3.4654 H       
  49 H49           -0.3258    -2.3126     2.9532 H       
  50 H50            3.1357    -2.2956    -0.8930 H       
  51 H51            3.8926    -1.3638     0.4342 H       
  52 H52            5.1343    -3.5303    -0.7568 H       
  53 H53            5.3907    -3.1047     0.9685 H       
  54 H54            4.5133    -5.2673     1.3048 H       
  55 H55            3.3913    -4.9976    -1.3943 H       
  56 H56            1.5856    -6.7327    -3.0232 H       
  57 H57            3.1044    -5.8298    -2.7873 H       
  58 H58            3.0946    -7.3080    -4.8517 H       
  59 H59            4.4104    -7.6702    -3.7075 H       
  60 H60            2.8125   -10.6865    -2.4982 H       
  61 H61            4.2457    -9.6422    -2.3338 H       
  62 H62            2.8240    -9.2657    -0.3979 H       
  63 H63            1.4007    -9.0055    -1.4391 H       
@<TRIPOS>BOND
   1    1    2 1
   2    1    3 2
   3    2    5 2
   4    2   36 1
   5    3    4 1
   6    3    6 1
   7    4    5 1
   8    5   18 1
   9    6    7 ar
  10    6    8 ar
  11    7   11 ar
  12    7   37 1
  13    8    9 ar
  14    8   38 1
  15    9   10 ar
  16    9   39 1
  17   10   11 ar
  18   10   12 1
  19   11   16 1
  20   12   13 1
  21   13   14 1
  22   13   15 1
  23   13   40 1
  24   14   41 1
  25   14   42 1
  26   14   43 1
  27   15   44 1
  28   15   45 1
  29   15   46 1
  30   16   17 3
  31   18   19 ar
  32   18   23 ar
  33   19   20 ar
  34   19   24 1
  35   20   21 ar
  36   20   26 1
  37   21   22 ar
  38   21   47 1
  39   22   23 ar
  40   22   48 1
  41   23   49 1
  42   24   25 1
  43   24   50 1
  44   24   51 1
  45   25   26 1
  46   25   52 1
  47   25   53 1
  48   26   27 1
  49   26   54 1
  50   27   28 am
  51   27   55 1
  52   28   29 am
  53   28   30 2
  54   29   31 1
  55   29   35 1
  56   31   32 1
  57   31   56 1
  58   31   57 1
  59   32   33 1
  60   32   58 1
  61   32   59 1
  62   33   34 1
  63   34   35 1
  64   34   60 1
  65   34   61 1
  66   35   62 1
  67   35   63 1

#	End of record

