#	Name: ASD08170269
#	Creating user name:	WinNT
#	Creation time:	15. 06. 2019 21:17

#	Modifying user name:	WinNT
#	Modification time:	15. 06. 2019 21:17

#	Program:	/corina/corina34_cracker 3.40 0067  02.08.2006

@<TRIPOS>MOLECULE
ASD08170269
  56   58    0    0    0
SMALL
NO_CHARGES


@<TRIPOS>ATOM
   1 C1            -0.0184     1.5028     0.0103 C.2     
   2 C2             0.0021    -0.0041     0.0020 C.3     
   3 C3             1.4513    -0.4944    -0.0145 C.3     
   4 C4             1.4726    -2.0183    -0.1486 C.3     
   5 O5             1.0236     2.1234     0.0037 O.2     
   6 N6            -1.1946     2.1607     0.0195 N.am    
   7 O7             2.8232    -2.4660    -0.2810 O.3     
   8 O8             2.0966    -0.1142     1.2025 O.3     
   9 S9            -2.6188     4.5308     0.0391 S.3     
  10 C10           -1.2134     3.5513     0.0271 C.2     
  11 N11           -0.1684     4.3227     0.0268 N.2     
  12 N12           -0.3608     5.5704     0.0348 N.2     
  13 C13           -1.5940     5.9665     0.0427 C.2     
  14 C14           -2.0680     7.3970     0.0535 C.3     
  15 C15           -2.2354     7.8896    -1.3853 C.3     
  16 C16           -2.7167     9.3419    -1.3744 C.3     
  17 C17           -2.8841     9.8346    -2.8132 C.3     
  18 S18           -5.0375    11.8045    -2.7910 S.3     
  19 C19           -3.3581    11.2651    -2.8024 C.2     
  20 N20           -2.6056    12.3193    -2.7993 N.2     
  21 N21           -3.1963    13.4350    -2.7895 N.2     
  22 C22           -4.4952    13.4295    -2.7834 C.2     
  23 C23           -4.7600    15.7863    -2.7676 C.2     
  24 C24           -5.6435    17.0072    -2.7562 C.3     
  25 O25           -3.5536    15.9109    -2.7721 O.2     
  26 N26           -5.3105    14.5562    -2.7728 N.am    
  27 C27           -4.7869    18.2471    -2.7523 C.ar    
  28 C28           -4.3995    18.8229    -3.9477 C.ar    
  29 C29           -3.6130    19.9621    -3.9437 C.ar    
  30 C30           -3.2154    20.5236    -2.7419 C.ar    
  31 C31           -3.6039    19.9462    -1.5482 C.ar    
  32 C32           -4.3938    18.8114    -1.5533 C.ar    
  33 F33           -3.2334    20.5255    -5.1115 F       
  34 H34           -0.4983    -0.3791     0.8948 H       
  35 H35           -0.5153    -0.3696    -0.8850 H       
  36 H36            1.9763    -0.0479    -0.8589 H       
  37 H37            1.0263    -2.4674     0.7387 H       
  38 H38            0.9039    -2.3135    -1.0304 H       
  39 H39           -2.0280     1.6644     0.0207 H       
  40 H40            2.9128    -3.4247    -0.3706 H       
  41 H41            1.6819    -0.4765     1.9974 H       
  42 H42           -3.0246     7.4588     0.5723 H       
  43 H43           -1.3350     8.0188     0.5675 H       
  44 H44           -1.2788     7.8278    -1.9042 H       
  45 H45           -2.9684     7.2678    -1.8993 H       
  46 H46           -3.6733     9.4038    -0.8555 H       
  47 H47           -1.9837     9.9637    -0.8603 H       
  48 H48           -1.9275     9.7728    -3.3320 H       
  49 H49           -3.6171     9.2128    -3.3272 H       
  50 H50           -6.2766    17.0058    -3.6435 H       
  51 H51           -6.2688    16.9948    -1.8636 H       
  52 H52           -6.2754    14.4566    -2.7692 H       
  53 H53           -4.7099    18.3839    -4.8843 H       
  54 H54           -2.6015    21.4121    -2.7377 H       
  55 H55           -3.2939    20.3839    -0.6108 H       
  56 H56           -4.7007    18.3633    -0.6198 H       
@<TRIPOS>BOND
   1    1    2 1
   2    1    5 2
   3    1    6 am
   4    2    3 1
   5    2   34 1
   6    2   35 1
   7    3    4 1
   8    3    8 1
   9    3   36 1
  10    4    7 1
  11    4   37 1
  12    4   38 1
  13    6   10 1
  14    6   39 1
  15    7   40 1
  16    8   41 1
  17    9   10 1
  18    9   13 1
  19   10   11 2
  20   11   12 1
  21   12   13 2
  22   13   14 1
  23   14   15 1
  24   14   42 1
  25   14   43 1
  26   15   16 1
  27   15   44 1
  28   15   45 1
  29   16   17 1
  30   16   46 1
  31   16   47 1
  32   17   19 1
  33   17   48 1
  34   17   49 1
  35   18   19 1
  36   18   22 1
  37   19   20 2
  38   20   21 1
  39   21   22 2
  40   22   26 1
  41   23   24 1
  42   23   25 2
  43   23   26 am
  44   24   27 1
  45   24   50 1
  46   24   51 1
  47   26   52 1
  48   27   28 ar
  49   27   32 ar
  50   28   29 ar
  51   28   53 1
  52   29   30 ar
  53   29   33 1
  54   30   31 ar
  55   30   54 1
  56   31   32 ar
  57   31   55 1
  58   32   56 1

#	End of record

