#	Name: ASD03330943
#	Creating user name:	WinNT
#	Creation time:	15. 06. 2019 20:38

#	Modifying user name:	WinNT
#	Modification time:	15. 06. 2019 20:38

#	Program:	/corina/corina34_cracker 3.40 0067  02.08.2006

@<TRIPOS>MOLECULE
ASD03330943
  65   68    0    0    0
SMALL
NO_CHARGES


@<TRIPOS>ATOM
   1 N1            -0.8140     1.7088    -0.4221 N.pl3   
   2 C2            -0.6454     0.3877    -0.1487 C.2     
   3 C3             0.6612    -0.2772     0.1977 C.3     
   4 N4             1.3529     0.5226     1.2207 N.3     
   5 C5             2.2041     1.5447     0.6088 C.3     
   6 C6             1.5870     2.0651    -0.6863 C.3     
   7 C7             0.2391     2.7276    -0.3887 C.3     
   8 C8            -2.1325     1.9001    -0.7165 C.2     
   9 N9            -2.7563     0.7502    -0.6118 N.2     
  10 C10           -1.8668    -0.2040    -0.2598 C.2     
  11 C11           -2.1650    -1.6297    -0.0366 C.2     
  12 O12           -1.2739    -2.3952     0.2784 O.2     
  13 N13           -3.4251    -2.0853    -0.1815 N.am    
  14 C14            2.1291    -0.3366     2.1248 C.3     
  15 C15           -4.9553    -3.8854    -0.7358 C.2     
  16 C16           -3.7215    -3.5027     0.0404 C.3     
  17 C17           -3.9612    -3.7462     1.5317 C.3     
  18 C18           -4.4026    -5.1952     1.7474 C.3     
  19 O19           -5.8264    -3.0649    -0.9330 O.2     
  20 C20           -2.6670    -3.4868     2.3054 C.3     
  21 C21           -5.0539    -2.8002     2.0338 C.3     
  22 N22           -5.0907    -5.1394    -1.2107 N.am    
  23 C23           -6.1381    -5.9001    -1.9086 C.3     
  24 C24           -5.5491    -7.1751    -1.2893 C.3     
  25 C25           -4.2536    -6.3474    -1.2648 C.3     
  26 O26           -6.0703    -7.4938     0.0025 O.3     
  27 C27           -2.7551     3.1885    -1.0906 C.ar    
  28 C28           -3.6161     3.2592    -2.1891 C.ar    
  29 C29           -4.1946     4.4666    -2.5325 C.ar    
  30 C30           -3.9227     5.6022    -1.7917 C.ar    
  31 C31           -3.0701     5.5383    -0.7027 C.ar    
  32 C32           -2.4899     4.3372    -0.3451 C.ar    
  33 F33           -3.8820     2.1504    -2.9136 F       
  34 Cl34          -2.7348     6.9703     0.2197 Cl      
  35 H35            0.4694    -1.2776     0.5855 H       
  36 H36            1.2836    -0.3443    -0.6946 H       
  37 H37            2.3258     2.3737     1.3059 H       
  38 H38            3.1815     1.1139     0.3919 H       
  39 H39            2.2575     2.7954    -1.1393 H       
  40 H40            1.4380     1.2345    -1.3761 H       
  41 H41            0.0334     3.4892    -1.1409 H       
  42 H42            0.2695     3.1881     0.5988 H       
  43 H43           -4.1357    -1.4747    -0.4327 H       
  44 H44            2.8252    -0.9409     1.5431 H       
  45 H45            2.6856     0.2840     2.8271 H       
  46 H46            1.4523    -0.9904     2.6749 H       
  47 H47           -2.8789    -4.1071    -0.2956 H       
  48 H48           -3.6183    -5.8691     1.4026 H       
  49 H49           -4.5869    -5.3649     2.8083 H       
  50 H50           -5.3170    -5.3841     1.1851 H       
  51 H51           -2.3526    -2.4545     2.1517 H       
  52 H52           -2.8378    -3.6603     3.3678 H       
  53 H53           -1.8886    -4.1608     1.9477 H       
  54 H54           -5.9759    -2.9850     1.4826 H       
  55 H55           -5.2247    -2.9737     3.0963 H       
  56 H56           -4.7394    -1.7679     1.8801 H       
  57 H57           -7.1453    -5.6731    -1.5592 H       
  58 H58           -6.0501    -5.8643    -2.9945 H       
  59 H59           -5.5191    -8.0284    -1.9668 H       
  60 H60           -3.6687    -6.4295    -2.1809 H       
  61 H61           -3.6552    -6.5015    -0.3669 H       
  62 H62           -5.6973    -8.2975     0.3899 H       
  63 H63           -4.8600     4.5233    -3.3813 H       
  64 H64           -4.3772     6.5433    -2.0640 H       
  65 H65           -1.8289     4.2883     0.5075 H       
@<TRIPOS>BOND
   1    1    2 1
   2    1    7 1
   3    1    8 1
   4    2    3 1
   5    2   10 2
   6    3    4 1
   7    3   35 1
   8    3   36 1
   9    4    5 1
  10    4   14 1
  11    5    6 1
  12    5   37 1
  13    5   38 1
  14    6    7 1
  15    6   39 1
  16    6   40 1
  17    7   41 1
  18    7   42 1
  19    8    9 2
  20    8   27 1
  21    9   10 1
  22   10   11 1
  23   11   12 2
  24   11   13 am
  25   13   16 1
  26   13   43 1
  27   14   44 1
  28   14   45 1
  29   14   46 1
  30   15   19 2
  31   15   22 am
  32   15   16 1
  33   16   17 1
  34   16   47 1
  35   17   18 1
  36   17   20 1
  37   17   21 1
  38   18   48 1
  39   18   49 1
  40   18   50 1
  41   20   51 1
  42   20   52 1
  43   20   53 1
  44   21   54 1
  45   21   55 1
  46   21   56 1
  47   22   23 1
  48   22   25 1
  49   23   24 1
  50   23   57 1
  51   23   58 1
  52   24   25 1
  53   24   26 1
  54   24   59 1
  55   25   60 1
  56   25   61 1
  57   26   62 1
  58   27   28 ar
  59   27   32 ar
  60   28   29 ar
  61   28   33 1
  62   29   30 ar
  63   29   63 1
  64   30   31 ar
  65   30   64 1
  66   31   32 ar
  67   31   34 1
  68   32   65 1

#	End of record

