#	Name: ASD00170684
#	Creating user name:	WinNT
#	Creation time:	15. 06. 2019 18:32

#	Modifying user name:	WinNT
#	Modification time:	15. 06. 2019 18:32

#	Program:	/corina/corina34_cracker 3.40 0067  02.08.2006

@<TRIPOS>MOLECULE
ASD00170684
  40   42    0    0    0
SMALL
NO_CHARGES


@<TRIPOS>ATOM
   1 C1             0.2551     0.8455     1.2287 C.3     
   2 O2             0.0317    -0.0956     0.1768 O.3     
   3 C3            -1.1777    -0.7152     0.1498 C.ar    
   4 C4            -1.4592    -1.6408    -0.8460 C.ar    
   5 C5            -2.6848    -2.2716    -0.8770 C.ar    
   6 C6            -3.6433    -1.9785     0.0948 C.ar    
   7 C7            -3.3562    -1.0471     1.0944 C.ar    
   8 C8            -2.1260    -0.4250     1.1214 C.ar    
   9 C9            -4.9587    -2.6519     0.0651 C.2     
  10 S10           -5.1890    -4.3814    -0.1190 S.3     
  11 C11           -6.8858    -4.2425    -0.0447 C.2     
  12 C12           -7.2628    -2.9271     0.1145 C.2     
  13 C13           -6.1363    -2.0260     0.1808 C.2     
  14 C14           -6.2725    -0.5351     0.3528 C.3     
  15 C15           -8.6561    -2.4901     0.2113 C.2     
  16 O16           -9.2519    -2.1294    -0.7875 O.2     
  17 C17           -9.3403    -2.4866     1.5221 C.ar    
  18 C18          -10.7005    -2.1817     1.6018 C.ar    
  19 C19          -11.3332    -2.1800     2.8270 C.ar    
  20 C20          -10.6219    -2.4794     3.9773 C.ar    
  21 C21           -9.2722    -2.7822     3.9046 C.ar    
  22 C22           -8.6301    -2.7937     2.6843 C.ar    
  23 Cl23         -11.4251    -2.4747     5.5163 Cl      
  24 N24           -7.7624    -5.3027    -0.1325 N.pl3   
  25 H25            1.2564     1.2657     1.1336 H       
  26 H26           -0.4824     1.6454     1.1633 H       
  27 H27            0.1618     0.3431     2.1915 H       
  28 H28           -0.7173    -1.8667    -1.5976 H       
  29 H29           -2.9032    -2.9912    -1.6522 H       
  30 H30           -4.0951    -0.8172     1.8477 H       
  31 H31           -1.9030     0.2956     1.8944 H       
  32 H32           -6.1789    -0.2810     1.4086 H       
  33 H33           -5.4891    -0.0309    -0.2131 H       
  34 H34           -7.2482    -0.2148    -0.0128 H       
  35 H35          -11.2559    -1.9474     0.7057 H       
  36 H36          -12.3853    -1.9443     2.8900 H       
  37 H37           -8.7227    -3.0145     4.8049 H       
  38 H38           -7.5778    -3.0299     2.6288 H       
  39 H39           -7.4283    -6.1941    -0.3186 H       
  40 H40           -8.7134    -5.1574    -0.0081 H       
@<TRIPOS>BOND
   1    1    2 1
   2    1   25 1
   3    1   26 1
   4    1   27 1
   5    2    3 1
   6    3    4 ar
   7    3    8 ar
   8    4    5 ar
   9    4   28 1
  10    5    6 ar
  11    5   29 1
  12    6    7 ar
  13    6    9 1
  14    7    8 ar
  15    7   30 1
  16    8   31 1
  17    9   10 1
  18    9   13 2
  19   10   11 1
  20   11   12 2
  21   11   24 1
  22   12   13 1
  23   12   15 1
  24   13   14 1
  25   14   32 1
  26   14   33 1
  27   14   34 1
  28   15   16 2
  29   15   17 1
  30   17   18 ar
  31   17   22 ar
  32   18   19 ar
  33   18   35 1
  34   19   20 ar
  35   19   36 1
  36   20   21 ar
  37   20   23 1
  38   21   22 ar
  39   21   37 1
  40   22   38 1
  41   24   39 1
  42   24   40 1

#	End of record

