#	Name: ASD01870551
#	Creating user name:	WinNT
#	Creation time:	15. 06. 2019 19:39

#	Modifying user name:	WinNT
#	Modification time:	15. 06. 2019 19:39

#	Program:	/corina/corina34_cracker 3.40 0067  02.08.2006

@<TRIPOS>MOLECULE
ASD01870551
  47   51    0    0    0
SMALL
NO_CHARGES


@<TRIPOS>ATOM
   1 N1            -0.0159     1.3218     0.0093 N.2     
   2 C2             0.0021    -0.0041     0.0020 C.ar    
   3 C3             1.3553    -0.4303    -0.0132 C.ar    
   4 N4             1.3007     1.8031    -0.0007 N.pl3   
   5 C5            -1.0059    -1.0028     0.0063 C.ar    
   6 N6            -0.6346    -2.2735    -0.0041 N.ar    
   7 C7             0.6441    -2.6217    -0.0182 C.ar    
   8 N8             1.6184    -1.7450    -0.0228 N.ar    
   9 C9             1.8018     3.0710     0.0009 C.2     
  10 C10            2.1503     0.7299    -0.0146 C.2     
  11 C11            3.5361     0.9318    -0.0267 C.2     
  12 C12            4.0272     2.2054    -0.0246 C.2     
  13 C13            3.1363     3.2872    -0.0110 C.2     
  14 N14           -2.3433    -0.6573     0.0214 N.pl3   
  15 C15           -3.3771    -1.7098     0.0256 C.3     
  16 C16           -5.8969    -1.3974     0.0077 C.3     
  17 C17           -6.0349    -2.7323    -0.7303 C.3     
  18 C18           -5.1272    -2.0780    -1.7884 C.3     
  19 C19           -3.6481    -2.1422    -1.4081 C.3     
  20 C20           -4.5954    -1.2041     0.7827 C.3     
  21 C21           -4.6752    -1.8117     2.1836 C.3     
  22 C22           -5.7734    -0.7398    -1.3874 C.3     
  23 C23           -5.4413    -3.9653    -0.0570 C.3     
  24 C24           -7.4597    -3.0028    -1.2443 C.3     
  25 H25            0.8938    -3.6723    -0.0258 H       
  26 H26            1.1249     3.9124     0.0116 H       
  27 H27            4.2099     0.0878    -0.0373 H       
  28 H28            5.0933     2.3780    -0.0338 H       
  29 H29            3.5174     4.2977    -0.0095 H       
  30 H30           -2.6027     0.2773     0.0292 H       
  31 H31           -2.9508    -2.5672     0.5767 H       
  32 H32           -6.7920    -1.0876     0.5677 H       
  33 H33           -5.3328    -2.3946    -2.8200 H       
  34 H34           -3.0793    -1.4888    -2.0912 H       
  35 H35           -3.2681    -3.1599    -1.5675 H       
  36 H36           -4.4612    -0.1064     0.9255 H       
  37 H37           -3.7820    -1.5430     2.7477 H       
  38 H38           -5.5576    -1.4284     2.6962 H       
  39 H39           -4.7430    -2.8968     2.1057 H       
  40 H40           -6.7203    -0.5206    -1.8692 H       
  41 H41           -5.0834     0.1067    -1.4059 H       
  42 H42           -5.9198    -4.1167     0.9105 H       
  43 H43           -5.6094    -4.8392    -0.6863 H       
  44 H44           -4.3704    -3.8210     0.0859 H       
  45 H45           -7.7516    -2.2141    -1.9377 H       
  46 H46           -7.4847    -3.9646    -1.7565 H       
  47 H47           -8.1521    -3.0212    -0.4027 H       
@<TRIPOS>BOND
   1    1    2 2
   2    1    4 1
   3    2    3 ar
   4    2    5 ar
   5    3   10 2
   6    3    8 ar
   7    4   10 1
   8    4    9 1
   9    5    6 ar
  10    5   14 1
  11    6    7 ar
  12    7    8 ar
  13    7   25 1
  14    9   13 2
  15    9   26 1
  16   10   11 1
  17   11   12 2
  18   11   27 1
  19   12   13 1
  20   12   28 1
  21   13   29 1
  22   14   15 1
  23   14   30 1
  24   15   19 1
  25   15   20 1
  26   15   31 1
  27   16   17 1
  28   16   22 1
  29   16   20 1
  30   16   32 1
  31   17   23 1
  32   17   24 1
  33   17   18 1
  34   18   19 1
  35   18   22 1
  36   18   33 1
  37   19   34 1
  38   19   35 1
  39   20   21 1
  40   20   36 1
  41   21   37 1
  42   21   38 1
  43   21   39 1
  44   22   40 1
  45   22   41 1
  46   23   42 1
  47   23   43 1
  48   23   44 1
  49   24   45 1
  50   24   46 1
  51   24   47 1

#	End of record

