#	Name: ASD02508307
#	Creating user name:	WinNT
#	Creation time:	15. 06. 2019 20:24

#	Modifying user name:	WinNT
#	Modification time:	15. 06. 2019 20:24

#	Program:	/corina/corina34_cracker 3.40 0067  02.08.2006

@<TRIPOS>MOLECULE
ASD02508307
  45   47    0    0    0
SMALL
NO_CHARGES


@<TRIPOS>ATOM
   1 C1            -0.0168     1.3849     0.0097 C.ar    
   2 C2             0.0021    -0.0041     0.0020 C.ar    
   3 C3             1.2161    -0.6790    -0.0132 C.ar    
   4 C4             2.3998     0.0323    -0.0207 C.ar    
   5 C5             2.3774     1.4150    -0.0126 C.ar    
   6 C6             1.1706     2.0901     0.0021 C.ar    
   7 S7             3.8901     2.3186    -0.0216 S.o2    
   8 O8             3.5988     3.5942     0.5329 O.2     
   9 O9             4.8805     1.4485     0.5086 O.2     
  10 C10            4.3221     2.5957    -1.7072 C.ar    
  11 C11            3.8770     3.7326    -2.3556 C.ar    
  12 C12            4.2148     3.9528    -3.6823 C.ar    
  13 C13            5.0050     3.0292    -4.3569 C.ar    
  14 C14            5.4475     1.8906    -3.7008 C.ar    
  15 C15            5.1100     1.6789    -2.3771 C.ar    
  16 O16            3.7627     5.0727    -4.3100 O.3     
  17 C17            4.4287     5.4446    -5.5216 C.3     
  18 C18            4.5845     4.1887    -6.3897 C.3     
  19 O19            5.3549     3.2298    -5.6568 O.3     
  20 N20           -1.1970    -0.7204     0.0101 N.am    
  21 S21           -1.2473    -2.2576    -0.6038 S.o2    
  22 O22           -2.5746    -2.3968    -1.0917 O.2     
  23 O23           -0.1331    -2.3203    -1.4835 O.2     
  24 C24           -0.9827    -3.3288     0.8360 C.3     
  25 C25           -2.4101    -0.1118     0.5616 C.3     
  26 C26           -3.0922     0.7330    -0.5163 C.3     
  27 H27           -0.9590     1.9127     0.0170 H       
  28 H28            1.2343    -1.7589    -0.0188 H       
  29 H29            3.3440    -0.4918    -0.0325 H       
  30 H30            1.1567     3.1700     0.0084 H       
  31 H31            3.2652     4.4497    -1.8285 H       
  32 H32            6.0595     1.1704    -4.2234 H       
  33 H33            5.4557     0.7914    -1.8679 H       
  34 H34            3.8353     6.1880    -6.0539 H       
  35 H35            5.4114     5.8553    -5.2897 H       
  36 H36            3.6021     3.7747    -6.6169 H       
  37 H37            5.0997     4.4436    -7.3158 H       
  38 H38           -1.6807    -3.0539     1.6267 H       
  39 H39           -1.1475    -4.3679     0.5509 H       
  40 H40            0.0393    -3.2085     1.1955 H       
  41 H41           -3.0909    -0.8955     0.8940 H       
  42 H42           -2.1459     0.5228     1.4075 H       
  43 H43           -2.4114     1.5167    -0.8487 H       
  44 H44           -3.3564     0.0984    -1.3622 H       
  45 H45           -3.9948     1.1858    -0.1059 H       
@<TRIPOS>BOND
   1    1    2 ar
   2    1    6 ar
   3    1   27 1
   4    2    3 ar
   5    2   20 1
   6    3    4 ar
   7    3   28 1
   8    4    5 ar
   9    4   29 1
  10    5    6 ar
  11    5    7 1
  12    6   30 1
  13    7    8 2
  14    7    9 2
  15    7   10 1
  16   10   11 ar
  17   10   15 ar
  18   11   12 ar
  19   11   31 1
  20   12   13 ar
  21   12   16 1
  22   13   14 ar
  23   13   19 1
  24   14   15 ar
  25   14   32 1
  26   15   33 1
  27   16   17 1
  28   17   18 1
  29   17   34 1
  30   17   35 1
  31   18   19 1
  32   18   36 1
  33   18   37 1
  34   20   21 am
  35   20   25 1
  36   21   22 2
  37   21   23 2
  38   21   24 1
  39   24   38 1
  40   24   39 1
  41   24   40 1
  42   25   26 1
  43   25   41 1
  44   25   42 1
  45   26   43 1
  46   26   44 1
  47   26   45 1

#	End of record

