#	Name: ASD01880637
#	Creating user name:	WinNT
#	Creation time:	15. 06. 2019 19:41

#	Modifying user name:	WinNT
#	Modification time:	15. 06. 2019 19:41

#	Program:	/corina/corina34_cracker 3.40 0067  02.08.2006

@<TRIPOS>MOLECULE
ASD01880637
  53   56    0    0    0
SMALL
NO_CHARGES


@<TRIPOS>ATOM
   1 N1            -0.0139     1.3122    -0.0055 N.ar    
   2 C2             0.0051    -0.0049    -0.0270 C.ar    
   3 N3             1.1346    -0.6834    -0.0557 N.ar    
   4 C4             2.3050    -0.0613    -0.0647 C.ar    
   5 C5             2.3343     1.3195    -0.0435 C.ar    
   6 C6             1.1198     2.0077    -0.0128 C.ar    
   7 C7             3.6442     2.0645    -0.0524 C.3     
   8 O8             4.0371     2.3212    -1.4021 O.3     
   9 C9             5.2038     2.9891    -1.5877 C.ar    
  10 C10            5.6454     3.2719    -2.8767 C.ar    
  11 C11            6.8255     3.9479    -3.0631 C.ar    
  12 C12            7.5889     4.3555    -1.9641 C.ar    
  13 C13            7.1407     4.0693    -0.6716 C.ar    
  14 C14            5.9536     3.3951    -0.4902 C.ar    
  15 C15            7.5721     4.4028    -4.2923 C.3     
  16 N16            8.7816     5.0793    -3.8100 N.am    
  17 C17            8.7873     5.0497    -2.4663 C.2     
  18 O18            9.6576     5.5282    -1.7650 O.2     
  19 C19            3.5881    -0.8509    -0.0972 C.3     
  20 N20            1.0960     3.3938     0.0089 N.pl3   
  21 C21           -0.1222     4.0734    -0.0813 C.ar    
  22 C22           -0.3051     5.2680     0.6034 C.ar    
  23 C23           -1.5099     5.9369     0.5121 C.ar    
  24 C24           -2.5337     5.4184    -0.2595 C.ar    
  25 C25           -2.3549     4.2293    -0.9424 C.ar    
  26 C26           -1.1504     3.5585    -0.8604 C.ar    
  27 C27           10.5371     7.7858    -5.7997 C.3     
  28 C28            9.4595     7.1515    -4.9180 C.3     
  29 C29            9.8134     5.6866    -4.6543 C.3     
  30 H30           -0.9309    -0.5436    -0.0204 H       
  31 H31            3.5283     3.0096     0.4783 H       
  32 H32            4.4079     1.4626     0.4402 H       
  33 H33            5.0606     2.9595    -3.7293 H       
  34 H34            7.7228     4.3792     0.1837 H       
  35 H35            5.6076     3.1745     0.5088 H       
  36 H36            7.8428     3.5435    -4.9057 H       
  37 H37            6.9590     5.0964    -4.8678 H       
  38 H38            3.8812    -1.0255    -1.1325 H       
  39 H39            4.3721    -0.2913     0.4129 H       
  40 H40            3.4391    -1.8071     0.4044 H       
  41 H41            1.9247     3.8919     0.0867 H       
  42 H42            0.4938     5.6732     1.2068 H       
  43 H43           -1.6528     6.8658     1.0443 H       
  44 H44           -3.4751     5.9431    -0.3286 H       
  45 H45           -3.1565     3.8269    -1.5439 H       
  46 H46           -1.0114     2.6299    -1.3941 H       
  47 H47           11.5005     7.7303    -5.2928 H       
  48 H48           10.5937     7.2494    -6.7470 H       
  49 H49           10.2850     8.8294    -5.9877 H       
  50 H50            9.4030     7.6879    -3.9708 H       
  51 H51            8.4962     7.2070    -5.4250 H       
  52 H52           10.7768     5.6311    -4.1473 H       
  53 H53            9.8700     5.1502    -5.6015 H       
@<TRIPOS>BOND
   1    1    2 ar
   2    1    6 ar
   3    2    3 ar
   4    2   30 1
   5    3    4 ar
   6    4    5 ar
   7    4   19 1
   8    5    6 ar
   9    5    7 1
  10    6   20 1
  11    7    8 1
  12    7   31 1
  13    7   32 1
  14    8    9 1
  15    9   10 ar
  16    9   14 ar
  17   10   11 ar
  18   10   33 1
  19   11   12 ar
  20   11   15 1
  21   12   13 ar
  22   12   17 1
  23   13   14 ar
  24   13   34 1
  25   14   35 1
  26   15   16 1
  27   15   36 1
  28   15   37 1
  29   16   17 am
  30   16   29 1
  31   17   18 2
  32   19   38 1
  33   19   39 1
  34   19   40 1
  35   20   21 1
  36   20   41 1
  37   21   22 ar
  38   21   26 ar
  39   22   23 ar
  40   22   42 1
  41   23   24 ar
  42   23   43 1
  43   24   25 ar
  44   24   44 1
  45   25   26 ar
  46   25   45 1
  47   26   46 1
  48   27   28 1
  49   27   47 1
  50   27   48 1
  51   27   49 1
  52   28   29 1
  53   28   50 1
  54   28   51 1
  55   29   52 1
  56   29   53 1

#	End of record

