#	Name: ASD01901273
#	Creating user name:	WinNT
#	Creation time:	15. 06. 2019 19:53

#	Modifying user name:	WinNT
#	Modification time:	15. 06. 2019 19:53

#	Program:	/corina/corina34_cracker 3.40 0067  02.08.2006

@<TRIPOS>MOLECULE
ASD01901273
  39   42    0    0    0
SMALL
NO_CHARGES


@<TRIPOS>ATOM
   1 C1            -0.0166     1.3750     0.0096 C.ar    
   2 C2             0.0021    -0.0041     0.0020 C.ar    
   3 C3             1.2078    -0.6830    -0.0127 C.ar    
   4 C4             2.4027     0.0149    -0.0199 C.ar    
   5 C5             2.3997     1.3941    -0.0129 C.ar    
   6 C6             1.1860     2.0866     0.0019 C.ar    
   7 C7             1.1748     3.5185     0.0093 C.1     
   8 C8             1.1656     4.6925     0.0153 C.1     
   9 C9             1.1543     6.1244     0.0226 C.ar    
  10 C10           -0.0666     8.1943     0.0507 C.ar    
  11 C11           -0.0605     6.8156     0.0433 C.ar    
  12 C12            2.3585     6.8349     0.0149 C.ar    
  13 C13            2.3438     8.2124     0.0225 C.ar    
  14 C14            1.1340     8.8967     0.0382 C.ar    
  15 N15            1.1239    10.2968     0.0463 N.am    
  16 N16            1.1320    12.2971     1.2744 N.am    
  17 C17            1.1408    10.9562     1.2172 C.2     
  18 C18            1.1029    10.9713    -1.1202 C.2     
  19 C19            1.1054    13.0600     0.1025 C.2     
  20 C20            1.1503    12.9680     2.5766 C.3     
  21 O21            1.0920    10.3678    -2.1782 O.2     
  22 Cl22          -1.5742     9.0546     0.0764 Cl      
  23 O23            1.1642    10.3204     2.2535 O.2     
  24 C24            1.0749    14.8444    -1.2513 C.2     
  25 N25            1.0928    14.3747    -0.0514 N.2     
  26 C26            1.0933    12.3860    -1.1063 C.2     
  27 S27            1.0675    13.5796    -2.3993 S.3     
  28 H28           -0.9584     1.9035     0.0169 H       
  29 H29           -0.9266    -0.5554     0.0079 H       
  30 H30            1.2163    -1.7630    -0.0182 H       
  31 H31            3.3399    -0.5217    -0.0306 H       
  32 H32            3.3330     1.9375    -0.0185 H       
  33 H33           -0.9928     6.2705     0.0531 H       
  34 H34            3.2991     6.3044     0.0034 H       
  35 H35            3.2737     8.7615     0.0165 H       
  36 H36            1.1698    12.2208     3.3700 H       
  37 H37            2.0371    13.5976     2.6486 H       
  38 H38            0.2575    13.5846     2.6802 H       
  39 H39            1.0630    15.8958    -1.4978 H       
@<TRIPOS>BOND
   1    1    2 ar
   2    1    6 ar
   3    1   28 1
   4    2    3 ar
   5    2   29 1
   6    3    4 ar
   7    3   30 1
   8    4    5 ar
   9    4   31 1
  10    5    6 ar
  11    5   32 1
  12    6    7 1
  13    7    8 3
  14    8    9 1
  15    9   12 ar
  16    9   11 ar
  17   10   11 ar
  18   10   14 ar
  19   10   22 1
  20   11   33 1
  21   12   13 ar
  22   12   34 1
  23   13   14 ar
  24   13   35 1
  25   14   15 1
  26   15   18 am
  27   15   17 am
  28   16   17 am
  29   16   19 1
  30   16   20 1
  31   17   23 2
  32   18   26 1
  33   18   21 2
  34   19   26 2
  35   19   25 1
  36   20   36 1
  37   20   37 1
  38   20   38 1
  39   24   25 2
  40   24   27 1
  41   24   39 1
  42   26   27 1

#	End of record

