#	Name: ASD03090388
#	Creating user name:	WinNT
#	Creation time:	15. 06. 2019 20:28

#	Modifying user name:	WinNT
#	Modification time:	15. 06. 2019 20:28

#	Program:	/corina/corina34_cracker 3.40 0067  02.08.2006

@<TRIPOS>MOLECULE
ASD03090388
  43   46    0    0    0
SMALL
NO_CHARGES


@<TRIPOS>ATOM
   1 C1             0.1196     1.3780     0.9813 C.2     
   2 C2             0.1016    -0.0720     0.7057 C.ar    
   3 C3             1.2573    -0.7247     0.2512 C.ar    
   4 C4             1.1911    -2.0810     0.0080 C.ar    
   5 C5            -0.0097    -2.7523     0.2195 C.ar    
   6 N6            -1.0837    -2.1077     0.6492 N.ar    
   7 C7            -1.0634    -0.8152     0.8989 C.ar    
   8 O8             1.1412     2.0159     0.8147 O.2     
   9 N9            -0.9979     1.9959     1.4123 N.am    
  10 O10           -0.0809    -4.0843    -0.0181 O.3     
  11 C11           -1.2927    -4.6888     0.0952 C.ar    
  12 C12           -2.2423    -4.5348    -0.9046 C.ar    
  13 C13           -3.4733    -5.1506    -0.7871 C.ar    
  14 C14           -3.7594    -5.9200     0.3256 C.ar    
  15 C15           -2.8148    -6.0750     1.3234 C.ar    
  16 C16           -1.5804    -5.4656     1.2083 C.ar    
  17 C17           -0.9801     3.4351     1.6859 C.3     
  18 N18           -6.0002     5.0293     3.6819 N.pl3   
  19 C19           -5.7945     4.8296     5.0198 C.2     
  20 C20           -4.5514     4.3676     5.2277 C.2     
  21 C21           -3.9084     4.2630     3.9157 C.ar    
  22 C22           -2.6447     3.8552     3.4838 C.ar    
  23 C23           -2.3444     3.8749     2.1511 C.ar    
  24 C24           -3.2857     4.2972     1.2222 C.ar    
  25 C25           -4.5381     4.7041     1.6263 C.ar    
  26 C26           -4.8656     4.6922     2.9785 C.ar    
  27 H27            2.1760    -0.1788     0.0953 H       
  28 H28            2.0612    -2.6159    -0.3430 H       
  29 H29           -1.9582    -0.3247     1.2527 H       
  30 H30           -1.8140     1.4878     1.5414 H       
  31 H31           -2.0195    -3.9337    -1.7737 H       
  32 H32           -4.2129    -5.0308    -1.5649 H       
  33 H33           -4.7225    -6.4003     0.4157 H       
  34 H34           -3.0409    -6.6761     2.1917 H       
  35 H35           -0.8415    -5.5903     1.9860 H       
  36 H36           -0.2453     3.6483     2.4621 H       
  37 H37           -0.7150     3.9745     0.7765 H       
  38 H38           -6.8240     5.3559     3.2874 H       
  39 H39           -6.5241     5.0162     5.7939 H       
  40 H40           -4.1092     4.1200     6.1814 H       
  41 H41           -1.9071     3.5263     4.2008 H       
  42 H42           -3.0334     4.3071     0.1721 H       
  43 H43           -5.2634     5.0312     0.8960 H       
@<TRIPOS>BOND
   1    1    2 1
   2    1    8 2
   3    1    9 am
   4    2    3 ar
   5    2    7 ar
   6    3    4 ar
   7    3   27 1
   8    4    5 ar
   9    4   28 1
  10    5    6 ar
  11    5   10 1
  12    6    7 ar
  13    7   29 1
  14    9   17 1
  15    9   30 1
  16   10   11 1
  17   11   12 ar
  18   11   16 ar
  19   12   13 ar
  20   12   31 1
  21   13   14 ar
  22   13   32 1
  23   14   15 ar
  24   14   33 1
  25   15   16 ar
  26   15   34 1
  27   16   35 1
  28   17   23 1
  29   17   36 1
  30   17   37 1
  31   18   19 1
  32   18   26 1
  33   18   38 1
  34   19   20 2
  35   19   39 1
  36   20   21 1
  37   20   40 1
  38   21   22 ar
  39   21   26 ar
  40   22   23 ar
  41   22   41 1
  42   23   24 ar
  43   24   25 ar
  44   24   42 1
  45   25   26 ar
  46   25   43 1

#	End of record

