#	Name: ASD02408142
#	Creating user name:	WinNT
#	Creation time:	15. 06. 2019 20:21

#	Modifying user name:	WinNT
#	Modification time:	15. 06. 2019 20:21

#	Program:	/corina/corina34_cracker 3.40 0067  02.08.2006

@<TRIPOS>MOLECULE
ASD02408142
  46   49    0    0    0
SMALL
NO_CHARGES


@<TRIPOS>ATOM
   1 C1             0.2394     1.3340    -0.0144 C.ar    
   2 C2             0.3212    -0.0525    -0.0142 C.ar    
   3 C3             1.4167     2.0772     0.0251 C.ar    
   4 C4             2.6393     1.4401     0.0689 C.ar    
   5 C5             2.7077     0.0590     0.0739 C.ar    
   6 C6             1.5430    -0.6866     0.0329 C.ar    
   7 C7             1.3545     3.5829     0.0196 C.3     
   8 C8             1.1607     4.0829     1.4280 C.2     
   9 N9             1.0789     5.4103     1.6422 N.am    
  10 N10            1.0722     3.2150     2.3990 N.2     
  11 C11            0.8993     3.6012     3.6695 C.2     
  12 C12            0.8110     4.9716     3.9652 C.2     
  13 C13            0.9050     5.8929     2.8906 C.2     
  14 N14            0.8088     2.6676     4.6726 N.pl3   
  15 C15            1.2975     2.8393     6.0528 C.3     
  16 O16            0.8347     7.0932     3.0907 O.2     
  17 C17           -1.0987    -0.5814    -0.0756 C.3     
  18 C18           -1.8899     0.6759    -0.5074 C.3     
  19 O19           -1.0560     1.7514    -0.0437 O.3     
  20 C20            1.5360     1.3991     6.5712 C.3     
  21 C21            0.3565     0.6329     5.9160 C.3     
  22 C22            0.2030     1.3337     4.5495 C.3     
  23 C23           -1.2795     1.4587     4.1925 C.3     
  24 O24           -1.9756     2.0967     5.2651 O.3     
  25 C25            0.6261     5.4250     5.3109 C.1     
  26 N26            0.4795     5.7847     6.3784 N.1     
  27 H27            3.5480     2.0231     0.0989 H       
  28 H28            3.6670    -0.4359     0.1098 H       
  29 H29            1.5919    -1.7655     0.0371 H       
  30 H30            2.2847     3.9835    -0.3834 H       
  31 H31            0.5196     3.9098    -0.6002 H       
  32 H32            1.1459     6.0238     0.8939 H       
  33 H33            2.2301     3.4035     6.0577 H       
  34 H34            0.5459     3.3419     6.6616 H       
  35 H35           -1.1878    -1.3725    -0.8201 H       
  36 H36           -1.4268    -0.9309     0.9034 H       
  37 H37           -1.9979     0.7108    -1.5915 H       
  38 H38           -2.8645     0.7052    -0.0201 H       
  39 H39            2.4940     1.0124     6.2237 H       
  40 H40            1.4716     1.3595     7.6585 H       
  41 H41            0.6054    -0.4203     5.7861 H       
  42 H42           -0.5523     0.7455     6.5072 H       
  43 H43            0.7249     0.7644     3.7803 H       
  44 H44           -1.3859     2.0538     3.2854 H       
  45 H45           -1.6984     0.4661     4.0270 H       
  46 H46           -2.9230     2.2095     5.1072 H       
@<TRIPOS>BOND
   1    1    2 ar
   2    1    3 ar
   3    1   19 1
   4    2   17 1
   5    2    6 ar
   6    3    4 ar
   7    3    7 1
   8    4    5 ar
   9    4   27 1
  10    5    6 ar
  11    5   28 1
  12    6   29 1
  13    7    8 1
  14    7   30 1
  15    7   31 1
  16    8    9 1
  17    8   10 2
  18    9   13 am
  19    9   32 1
  20   10   11 1
  21   11   12 2
  22   11   14 1
  23   12   13 1
  24   12   25 1
  25   13   16 2
  26   14   15 1
  27   14   22 1
  28   15   20 1
  29   15   33 1
  30   15   34 1
  31   17   18 1
  32   17   35 1
  33   17   36 1
  34   18   19 1
  35   18   37 1
  36   18   38 1
  37   20   21 1
  38   20   39 1
  39   20   40 1
  40   21   22 1
  41   21   41 1
  42   21   42 1
  43   22   23 1
  44   22   43 1
  45   23   24 1
  46   23   44 1
  47   23   45 1
  48   24   46 1
  49   25   26 3

#	End of record

