#	Name: ASD03540289
#	Creating user name:	WinNT
#	Creation time:	15. 06. 2019 20:42

#	Modifying user name:	WinNT
#	Modification time:	15. 06. 2019 20:42

#	Program:	/corina/corina34_cracker 3.40 0067  02.08.2006

@<TRIPOS>MOLECULE
ASD03540289
  55   58    0    0    0
SMALL
NO_CHARGES


@<TRIPOS>ATOM
   1 C1             3.1834    -8.8699    -1.6893 C.2     
   2 C2             2.4348    -7.6709    -1.2600 C.ar    
   3 C3             1.0410    -7.7055    -1.1801 C.ar    
   4 C4             0.3484    -6.5826    -0.7781 C.ar    
   5 C5             1.0315    -5.4233    -0.4548 C.ar    
   6 C6             2.4122    -5.3819    -0.5322 C.ar    
   7 C7             3.1179    -6.4998    -0.9269 C.ar    
   8 O8             2.5973    -9.9175    -1.8754 O.2     
   9 O9             4.5151    -8.8001    -1.8798 O.3     
  10 C10            0.2954    -8.9668    -1.5327 C.3     
  11 C11            0.2679    -4.2001    -0.0168 C.3     
  12 C12           -2.1421    -4.1946     0.2652 C.2     
  13 N13           -3.2822    -4.5384     0.8813 N.am    
  14 C14           -3.2778    -5.3455     2.0050 C.2     
  15 C15           -2.0642    -5.8064     2.5011 C.2     
  16 C16           -0.8340    -5.3987     1.7860 C.2     
  17 N17           -0.9419    -4.6105     0.7003 N.am    
  18 C18           -2.2075    -6.6081     3.6359 C.2     
  19 C19           -3.4791    -6.7827     4.0326 C.2     
  20 S20           -4.5702    -5.9206     2.9626 S.3     
  21 O21            0.2579    -5.7709     2.1734 O.2     
  22 O22           -2.1971    -3.4874    -0.7222 O.2     
  23 C23            1.1463    -3.3542     0.9072 C.3     
  24 C24           -3.8945    -7.5776     5.1907 C.2     
  25 N25           -5.2019    -7.6861     5.4996 N.am    
  26 O26           -3.0590    -8.1401     5.8740 O.2     
  27 C27           -5.6174    -8.4811     6.6579 C.3     
  28 C28           -7.1186    -8.4406     6.7826 C.ar    
  29 C29           -7.8902    -9.3922     6.1437 C.ar    
  30 C30           -9.2720    -9.3544     6.2588 C.ar    
  31 C31           -9.8759    -8.3605     7.0157 C.ar    
  32 C32           -9.1001    -7.4115     7.6524 C.ar    
  33 C33           -7.7224    -7.4548     7.5407 C.ar    
  34 O34          -10.0332   -10.2889     5.6310 O.3     
  35 H35           -0.7295    -6.6080    -0.7158 H       
  36 H36            2.9390    -4.4737    -0.2791 H       
  37 H37            4.1960    -6.4677    -0.9823 H       
  38 H38            4.9615    -9.6107    -2.1607 H       
  39 H39            0.2798    -9.6328    -0.6701 H       
  40 H40           -0.7266    -8.7170    -1.8176 H       
  41 H41            0.7939    -9.4627    -2.3657 H       
  42 H42           -0.0101    -3.6127    -0.8919 H       
  43 H43           -4.1272    -4.2144     0.5322 H       
  44 H44           -1.3674    -7.0504     4.1505 H       
  45 H45            2.0464    -3.0489     0.3737 H       
  46 H46            0.5939    -2.4695     1.2240 H       
  47 H47            1.4243    -3.9417     1.7823 H       
  48 H48           -5.8678    -7.2378     4.9551 H       
  49 H49           -5.2914    -9.5129     6.5262 H       
  50 H50           -5.1665    -8.0702     7.5612 H       
  51 H51           -7.4179   -10.1646     5.5549 H       
  52 H52          -10.9516    -8.3287     7.1066 H       
  53 H53           -9.5696    -6.6375     8.2414 H       
  54 H54           -7.1173    -6.7147     8.0432 H       
  55 H55          -10.2081   -11.0765     6.1641 H       
@<TRIPOS>BOND
   1    1    2 1
   2    1    8 2
   3    1    9 1
   4    2    3 ar
   5    2    7 ar
   6    3    4 ar
   7    3   10 1
   8    4    5 ar
   9    4   35 1
  10    5    6 ar
  11    5   11 1
  12    6    7 ar
  13    6   36 1
  14    7   37 1
  15    9   38 1
  16   10   39 1
  17   10   40 1
  18   10   41 1
  19   11   17 1
  20   11   23 1
  21   11   42 1
  22   12   13 am
  23   12   17 am
  24   12   22 2
  25   13   14 1
  26   13   43 1
  27   14   15 2
  28   14   20 1
  29   15   16 1
  30   15   18 1
  31   16   17 am
  32   16   21 2
  33   18   19 2
  34   18   44 1
  35   19   20 1
  36   19   24 1
  37   23   45 1
  38   23   46 1
  39   23   47 1
  40   24   25 am
  41   24   26 2
  42   25   27 1
  43   25   48 1
  44   27   28 1
  45   27   49 1
  46   27   50 1
  47   28   29 ar
  48   28   33 ar
  49   29   30 ar
  50   29   51 1
  51   30   31 ar
  52   30   34 1
  53   31   32 ar
  54   31   52 1
  55   32   33 ar
  56   32   53 1
  57   33   54 1
  58   34   55 1

#	End of record

