#	Name: ASD01200348
#	Creating user name:	WinNT
#	Creation time:	15. 06. 2019 19:09

#	Modifying user name:	WinNT
#	Modification time:	15. 06. 2019 19:09

#	Program:	/corina/corina34_cracker 3.40 0067  02.08.2006

@<TRIPOS>MOLECULE
ASD01200348
  58   61    0    0    0
SMALL
NO_CHARGES


@<TRIPOS>ATOM
   1 C1            -0.0189     1.3778     0.0459 C.ar    
   2 C2             0.0004    -0.0035     0.0279 C.ar    
   3 C3             1.2116    -0.6788    -0.0036 C.ar    
   4 C4             2.4017     0.0356    -0.0169 C.ar    
   5 C5             2.3766     1.4178     0.0012 C.ar    
   6 C6             1.1676     2.0877     0.0326 C.ar    
   7 C7             1.1429     3.5944     0.0523 C.3     
   8 C8             1.8792     4.1003     1.2944 C.3     
   9 C9             1.8217     4.1241    -1.1845 C.2     
  10 C10            1.7475     5.6222     1.3808 C.3     
  11 C11            0.4664     7.4269     2.3600 C.3     
  12 C12            0.2929     6.0213     1.7329 C.3     
  13 C13            2.5850     6.1708     2.5545 C.3     
  14 C14            1.7704     7.3183     3.1770 C.3     
  15 C15            1.1931     4.4809    -2.3156 C.2     
  16 N16            3.1703     4.3184    -1.3190 N.pl3   
  17 C17            2.2248     4.9350    -3.2497 C.ar    
  18 C18            2.2100     5.4213    -4.5587 C.ar    
  19 C19            3.4522     4.8118    -2.5703 C.ar    
  20 N20            4.5797     5.1573    -3.1772 N.ar    
  21 C21            4.5881     5.6151    -4.4111 C.ar    
  22 C22            3.4176     5.7618    -5.1391 C.ar    
  23 Cl23           3.9198    -0.8055    -0.0557 Cl      
  24 O24            1.2331    -2.0378    -0.0209 O.3     
  25 C25           -0.0232    -2.7081     0.0996 C.3     
  26 C26            0.1867    -4.2161    -0.0517 C.3     
  27 C27           -0.6291    -2.4128     1.4732 C.3     
  28 O28           -0.9097    -2.2457    -0.9214 O.3     
  29 C29           -0.4356    -2.4742    -2.2499 C.3     
  30 H30           -0.9619     1.9038     0.0660 H       
  31 H31           -0.9268    -0.5571     0.0387 H       
  32 H32            3.3019     1.9745    -0.0091 H       
  33 H33            0.1096     3.9405     0.0762 H       
  34 H34            1.4437     3.6468     2.1848 H       
  35 H35            2.9330     3.8300     1.2274 H       
  36 H36            2.0558     6.0847     0.4432 H       
  37 H37            0.5662     8.1826     1.5809 H       
  38 H38           -0.3747     7.6597     3.0131 H       
  39 H39           -0.3219     6.0724     0.8343 H       
  40 H40           -0.1343     5.3260     2.4555 H       
  41 H41            2.7508     5.3869     3.2934 H       
  42 H42            3.5401     6.5470     2.1878 H       
  43 H43            2.3302     8.2513     3.1126 H       
  44 H44            1.5410     7.0912     4.2181 H       
  45 H45            0.1299     4.4407    -2.5010 H       
  46 H46            3.8300     4.1347    -0.6320 H       
  47 H47            1.2825     5.5279    -5.1017 H       
  48 H48            5.5294     5.8850    -4.8667 H       
  49 H49            3.4485     6.1412    -6.1498 H       
  50 H50            0.8629    -4.5687     0.7271 H       
  51 H51           -0.7716    -4.7273     0.0402 H       
  52 H52            0.6183    -4.4264    -1.0303 H       
  53 H53           -0.6951    -1.3344     1.6170 H       
  54 H54           -1.6264    -2.8489     1.5317 H       
  55 H55            0.0025    -2.8449     2.2494 H       
  56 H56            0.5141    -1.9581    -2.3906 H       
  57 H57           -0.2946    -3.5437    -2.4065 H       
  58 H58           -1.1647    -2.0952    -2.9661 H       
@<TRIPOS>BOND
   1    1    2 ar
   2    1    6 ar
   3    1   30 1
   4    2    3 ar
   5    2   31 1
   6    3    4 ar
   7    3   24 1
   8    4    5 ar
   9    4   23 1
  10    5    6 ar
  11    5   32 1
  12    6    7 1
  13    7    8 1
  14    7    9 1
  15    7   33 1
  16    8   10 1
  17    8   34 1
  18    8   35 1
  19    9   16 1
  20    9   15 2
  21   10   13 1
  22   10   12 1
  23   10   36 1
  24   11   12 1
  25   11   14 1
  26   11   37 1
  27   11   38 1
  28   12   39 1
  29   12   40 1
  30   13   14 1
  31   13   41 1
  32   13   42 1
  33   14   43 1
  34   14   44 1
  35   15   17 1
  36   15   45 1
  37   16   19 1
  38   16   46 1
  39   17   19 ar
  40   17   18 ar
  41   18   22 ar
  42   18   47 1
  43   19   20 ar
  44   20   21 ar
  45   21   22 ar
  46   21   48 1
  47   22   49 1
  48   24   25 1
  49   25   26 1
  50   25   27 1
  51   25   28 1
  52   26   50 1
  53   26   51 1
  54   26   52 1
  55   27   53 1
  56   27   54 1
  57   27   55 1
  58   28   29 1
  59   29   56 1
  60   29   57 1
  61   29   58 1

#	End of record

