#	Name: ASD01812039
#	Creating user name:	WinNT
#	Creation time:	15. 06. 2019 19:27

#	Modifying user name:	WinNT
#	Modification time:	15. 06. 2019 19:27

#	Program:	/corina/corina34_cracker 3.40 0067  02.08.2006

@<TRIPOS>MOLECULE
ASD01812039
  55   59    0    0    0
SMALL
NO_CHARGES


@<TRIPOS>ATOM
   1 C1            -0.0168     1.3841     0.0097 C.ar    
   2 C2             0.0021    -0.0041     0.0020 C.ar    
   3 C3             1.1505     2.0940     0.0023 C.ar    
   4 C4             1.1963    -0.6905    -0.0130 C.ar    
   5 C5             2.3725     1.4186    -0.0130 C.ar    
   6 C6             2.3970     0.0122    -0.0207 C.ar    
   7 C7             3.7730     1.8479    -0.0248 C.2     
   8 N8             3.7194    -0.3710    -0.0361 N.pl3   
   9 C9             4.5243     0.7356    -0.0383 C.2     
  10 S10            4.3601     3.5093    -0.0219 S.o2    
  11 C11            4.1940    -1.7569    -0.0476 C.3     
  12 C12            3.7949     4.1919    -1.6046 C.3     
  13 O13            3.6718     4.1222     1.0597 O.2     
  14 O14            5.7752     3.3808    -0.0111 O.2     
  15 C15            4.2251    -2.2655    -1.4658 C.ar    
  16 C16            4.2413     5.6265    -1.7210 C.2     
  17 C17            5.3678    -2.1109    -2.2292 C.ar    
  18 C18            3.1144    -2.8898    -1.9980 C.ar    
  19 O19            4.8780     6.1381    -0.8246 O.2     
  20 N20            3.9329     6.3410    -2.8214 N.am    
  21 C21            5.4041    -2.5751    -3.5316 C.ar    
  22 C22            3.1434    -3.3596    -3.3083 C.ar    
  23 C23            4.3462     7.6691    -2.9292 C.2     
  24 C24            4.2962    -3.1962    -4.0770 C.ar    
  25 C25            1.9518    -4.0316    -3.8856 C.2     
  26 C26            5.0930     8.4097    -1.9749 C.2     
  27 N27            4.1285     8.4798    -3.9312 N.2     
  28 F28            4.3316    -3.6491    -5.3494 F       
  29 C29            5.2333     9.6282    -2.5449 C.2     
  30 O30            4.6166     9.5683    -3.7340 O.3     
  31 C31            5.9500    10.8184    -1.9610 C.3     
  32 H32            3.4237     5.9319    -3.5385 H       
  33 C33            1.3640    -3.7425    -5.0823 C.2     
  34 N34            0.3152    -4.5766    -5.2338 N.pl3   
  35 N35            0.2479    -5.4039    -4.1062 N.2     
  36 C36            1.2265    -5.0873    -3.3000 C.2     
  37 H37           -0.9617     1.9070     0.0169 H       
  38 H38           -0.9290    -0.5513     0.0083 H       
  39 H39            1.1282     3.1738     0.0080 H       
  40 H40            1.2004    -1.7704    -0.0185 H       
  41 H41            5.6041     0.7168    -0.0493 H       
  42 H42            5.1973    -1.8009     0.3762 H       
  43 H43            3.5214    -2.3762     0.5459 H       
  44 H44            4.2203     3.6114    -2.4233 H       
  45 H45            2.7070     4.1448    -1.6529 H       
  46 H46            6.2353    -1.6256    -1.8068 H       
  47 H47            2.2246    -3.0138    -1.3986 H       
  48 H48            6.2991    -2.4518    -4.1233 H       
  49 H49            5.4632     8.0771    -1.0163 H       
  50 H50            6.9967    10.7970    -2.2644 H       
  51 H51            5.4855    11.7357    -2.3229 H       
  52 H52            5.8861    10.7834    -0.8734 H       
  53 H53            1.6811    -2.9830    -5.7816 H       
  54 H54           -0.2885    -4.5993    -5.9927 H       
  55 H55            1.4376    -5.5495    -2.3470 H       
@<TRIPOS>BOND
   1    1    2 ar
   2    1    3 ar
   3    1   37 1
   4    2    4 ar
   5    2   38 1
   6    3    5 ar
   7    3   39 1
   8    4    6 ar
   9    4   40 1
  10    5    7 1
  11    5    6 ar
  12    6    8 1
  13    7    9 2
  14    7   10 1
  15    8   11 1
  16    8    9 1
  17    9   41 1
  18   10   12 1
  19   10   13 2
  20   10   14 2
  21   11   15 1
  22   11   42 1
  23   11   43 1
  24   12   16 1
  25   12   44 1
  26   12   45 1
  27   15   17 ar
  28   15   18 ar
  29   16   19 2
  30   16   20 am
  31   17   21 ar
  32   17   46 1
  33   18   22 ar
  34   18   47 1
  35   20   32 1
  36   20   23 1
  37   21   24 ar
  38   21   48 1
  39   22   24 ar
  40   22   25 1
  41   23   26 1
  42   23   27 2
  43   24   28 1
  44   25   33 2
  45   25   36 1
  46   26   29 2
  47   26   49 1
  48   27   30 1
  49   29   31 1
  50   29   30 1
  51   31   50 1
  52   31   51 1
  53   31   52 1
  54   33   34 1
  55   33   53 1
  56   34   35 1
  57   34   54 1
  58   35   36 2
  59   36   55 1

#	End of record

