#	Name: ASD03180002
#	Creating user name:	WinNT
#	Creation time:	15. 06. 2019 20:33

#	Modifying user name:	WinNT
#	Modification time:	15. 06. 2019 20:33

#	Program:	/corina/corina34_cracker 3.40 0067  02.08.2006

@<TRIPOS>MOLECULE
ASD03180002
  44   49    0    0    0
SMALL
NO_CHARGES


@<TRIPOS>ATOM
   1 C1            -0.0007     1.3924    -0.0257 C.ar    
   2 C2             0.0138    -0.0059    -0.0239 C.ar    
   3 C3            -1.2092    -0.6636    -0.0328 C.ar    
   4 C4            -2.4464    -0.0680     0.0226 C.ar    
   5 C5            -2.4466     1.3157     0.0165 C.ar    
   6 C6            -1.2490     2.0120    -0.0064 C.ar    
   7 O7             1.1513     2.1150    -0.0399 O.3     
   8 C8            -0.9180    -2.1436    -0.0633 C.3     
   9 C9            -2.0321    -2.8344     0.6892 C.3     
  10 C10           -3.3570    -2.4168     0.0603 C.3     
  11 C11           -3.6613    -0.9304     0.1366 C.3     
  12 O12           -1.8838    -4.2382     0.4670 O.3     
  13 C13            0.4751    -2.1615     0.5638 C.3     
  14 C14            0.3448    -1.8965     2.0527 C.2     
  15 C15           -0.8771    -2.2162     2.7755 C.2     
  16 C16           -1.9883    -2.6121     2.1581 C.2     
  17 O17            1.0221    -0.9054     0.0302 O.3     
  18 O18            1.2793    -1.4082     2.6529 O.2     
  19 N19           -3.3720    -2.8693    -1.3392 N.4     
  20 C20           -4.6603    -2.5090    -1.9462 C.3     
  21 H21           -3.2660    -3.8724    -1.3624 H       
  22 C22           -2.2901    -2.2571    -2.1138 C.3     
  23 C23           -0.9217    -2.6177    -1.5171 C.3     
  24 C24           -4.8357    -2.7769    -3.4423 C.3     
  25 C25           -5.5627    -3.6508    -2.4182 C.3     
  26 H26           -3.3826     1.8542     0.0339 H       
  27 H27           -1.2848     3.0913    -0.0193 H       
  28 H28            1.4743     2.3228    -0.9273 H       
  29 H29           -4.1553    -2.9493     0.5772 H       
  30 H30           -4.1493    -0.7222     1.0888 H       
  31 H31           -4.3491    -0.6729    -0.6688 H       
  32 H32           -2.5528    -4.7791     0.9086 H       
  33 H33            1.0574    -3.0511     0.3242 H       
  34 H34           -0.8862    -2.1201     3.8512 H       
  35 H35           -2.8763    -2.7942     2.7452 H       
  36 H36           -5.1431    -1.6232    -1.5336 H       
  37 H37           -2.3386    -2.6145    -3.1423 H       
  38 H38           -2.4112    -1.1738    -2.1050 H       
  39 H39           -0.1307    -2.1142    -2.0731 H       
  40 H40           -0.7735    -3.6969    -1.5553 H       
  41 H41           -5.4343    -2.0675    -4.0139 H       
  42 H42           -3.9953    -3.2205    -3.9762 H       
  43 H43           -5.2006    -4.6693    -2.2783 H       
  44 H44           -6.6396    -3.5163    -2.3160 H       
@<TRIPOS>BOND
   1    1    2 ar
   2    1    7 1
   3    1    6 ar
   4    2    3 ar
   5    2   17 1
   6    3    4 ar
   7    3    8 1
   8    4    5 ar
   9    4   11 1
  10    5    6 ar
  11    5   26 1
  12    6   27 1
  13    7   28 1
  14    8    9 1
  15    8   23 1
  16    8   13 1
  17    9   12 1
  18    9   10 1
  19    9   16 1
  20   10   11 1
  21   10   19 1
  22   10   29 1
  23   11   30 1
  24   11   31 1
  25   12   32 1
  26   13   14 1
  27   13   17 1
  28   13   33 1
  29   14   15 1
  30   14   18 2
  31   15   16 2
  32   15   34 1
  33   16   35 1
  34   19   20 1
  35   19   21 1
  36   19   22 1
  37   20   24 1
  38   20   25 1
  39   20   36 1
  40   22   23 1
  41   22   37 1
  42   22   38 1
  43   23   39 1
  44   23   40 1
  45   24   25 1
  46   24   41 1
  47   24   42 1
  48   25   43 1
  49   25   44 1

#	End of record

