#	Name: ASD01941007
#	Creating user name:	WinNT
#	Creation time:	15. 06. 2019 20:13

#	Modifying user name:	WinNT
#	Modification time:	15. 06. 2019 20:13

#	Program:	/corina/corina34_cracker 3.40 0067  02.08.2006

@<TRIPOS>MOLECULE
ASD01941007
  47   48    0    0    0
SMALL
NO_CHARGES


@<TRIPOS>ATOM
   1 C1             0.3767     0.6089     1.0616 C.ar    
   2 C2             0.0105    -0.0215    -0.1057 C.ar    
   3 C3             0.8534     0.0007    -1.2094 C.ar    
   4 C4             2.0701     0.6569    -1.1470 C.ar    
   5 C5             2.4546     1.2985     0.0247 C.ar    
   6 C6             1.6029     1.2763     1.1405 C.ar    
   7 F7             0.4836    -0.6221    -2.3499 F       
   8 F8             2.8846     0.6736    -2.2248 F       
   9 N9             3.6767     1.9586     0.0914 N.pl3   
  10 C10            4.7989     1.3021     0.6076 C.ar    
  11 C11            4.6689     0.0397     1.1700 C.ar    
  12 C12            5.7791    -0.6066     1.6788 C.ar    
  13 C13            7.0198     0.0021     1.6287 C.ar    
  14 C14            7.1546     1.2605     1.0690 C.ar    
  15 C15            6.0489     1.9107     0.5534 C.ar    
  16 F16            6.1803     3.1391     0.0067 F       
  17 I17            8.6992    -0.9828     2.4024 I       
  18 C18            1.9991     1.9525     2.3880 C.2     
  19 O19            3.0722     2.5206     2.4574 O.2     
  20 N20            1.1722     1.9417     3.4522 N.am    
  21 O21            1.5529     2.5917     4.6512 O.3     
  22 C22            0.5818     2.5004     5.6955 C.3     
  23 C23            1.0962     3.2337     6.9359 C.3     
  24 O24            1.2138     4.6288     6.6499 O.3     
  25 C25           -1.3117    -0.7401    -0.1866 C.3     
  26 O26           -1.9941    -0.6242     1.0635 O.3     
  27 C27           -3.2661    -1.2748     1.0939 C.3     
  28 C28           -3.9024    -1.0865     2.4725 C.3     
  29 O29           -4.1813     0.2991     2.6831 O.3     
  30 H30           -0.2849     0.5920     1.9151 H       
  31 H31            3.7510     2.8742    -0.2201 H       
  32 H32            3.7005    -0.4368     1.2102 H       
  33 H33            5.6777    -1.5887     2.1166 H       
  34 H34            8.1248     1.7333     1.0314 H       
  35 H35            0.3163     1.4887     3.3968 H       
  36 H36           -0.3514     2.9565     5.3648 H       
  37 H37            0.4076     1.4524     5.9391 H       
  38 H38            0.3969     3.0893     7.7595 H       
  39 H39            2.0723     2.8362     7.2142 H       
  40 H40            1.5356     5.1569     7.3934 H       
  41 H41           -1.9192    -0.2955    -0.9748 H       
  42 H42           -1.1399    -1.7930    -0.4105 H       
  43 H43           -3.9142    -0.8412     0.3323 H       
  44 H44           -3.1348    -2.3387     0.8966 H       
  45 H45           -4.8303    -1.6560     2.5252 H       
  46 H46           -3.2151    -1.4397     3.2412 H       
  47 H47           -4.5869     0.4930     3.5393 H       
@<TRIPOS>BOND
   1    1    2 ar
   2    1    6 ar
   3    1   30 1
   4    2    3 ar
   5    2   25 1
   6    3    4 ar
   7    3    7 1
   8    4    5 ar
   9    4    8 1
  10    5    6 ar
  11    5    9 1
  12    6   18 1
  13    9   10 1
  14    9   31 1
  15   10   11 ar
  16   10   15 ar
  17   11   12 ar
  18   11   32 1
  19   12   13 ar
  20   12   33 1
  21   13   14 ar
  22   13   17 1
  23   14   15 ar
  24   14   34 1
  25   15   16 1
  26   18   19 2
  27   18   20 am
  28   20   21 1
  29   20   35 1
  30   21   22 1
  31   22   23 1
  32   22   36 1
  33   22   37 1
  34   23   24 1
  35   23   38 1
  36   23   39 1
  37   24   40 1
  38   25   26 1
  39   25   41 1
  40   25   42 1
  41   26   27 1
  42   27   28 1
  43   27   43 1
  44   27   44 1
  45   28   29 1
  46   28   45 1
  47   28   46 1
  48   29   47 1

#	End of record

