#	Name: ASD03930293
#	Creating user name:	WinNT
#	Creation time:	15. 06. 2019 20:47

#	Modifying user name:	WinNT
#	Modification time:	15. 06. 2019 20:47

#	Program:	/corina/corina34_cracker 3.40 0067  02.08.2006

@<TRIPOS>MOLECULE
ASD03930293
  58   63    0    0    0
SMALL
NO_CHARGES


@<TRIPOS>ATOM
   1 O1             0.4516    -1.5894     0.7611 O.2     
   2 S2             0.2158    -0.1931     0.6431 S.o2    
   3 O3            -0.6663     0.3777    -0.3136 O.2     
   4 N4            -0.2783     0.3456     2.1461 N.am    
   5 C5             0.0970     1.7426     2.4521 C.3     
   6 N6             1.5488     1.8539     2.4932 N.3     
   7 C7             1.9617     3.1793     2.9736 C.3     
   8 C8             0.9676     4.3310     2.8111 C.3     
   9 C9             1.2383     3.7440     4.1978 C.3     
  10 C10            2.2448     1.5019     1.3458 C.ar    
  11 C11            3.4819     2.1160     1.1257 C.ar    
  12 C12            4.2357     1.7957     0.0181 C.ar    
  13 C13            5.5661     2.4680    -0.2030 C.3     
  14 C14            6.6696     1.6487     0.4694 C.3     
  15 C15            8.0000     2.3211     0.2483 C.ar    
  16 C16            8.7541     2.0037    -0.8663 C.ar    
  17 C17            9.9810     2.6132    -1.0576 C.ar    
  18 C18           10.4436     3.5391    -0.1464 C.ar    
  19 C19            9.6885     3.8850     0.9647 C.ar    
  20 C20            8.4560     3.2528     1.1550 C.ar    
  21 N21           10.0607     4.8575     1.8818 N.3     
  22 C22           11.4884     5.0639     2.0858 C.3     
  23 N23           12.1156     5.4482     0.8036 N.am    
  24 S24           12.0302     4.2836    -0.3917 S.o2    
  25 O25           13.0030     3.2966    -0.0775 O.2     
  26 O26           11.9771     4.9700    -1.6348 O.2     
  27 C27            9.3681     4.6654     3.1630 C.3     
  28 C28           10.1235     3.9285     4.2708 C.3     
  29 C29            9.8955     5.4379     4.3739 C.3     
  30 C30            3.7783     0.8602    -0.8916 C.ar    
  31 C31            2.5519     0.2534    -0.6892 C.ar    
  32 C32            1.7922     0.5782     0.4151 C.ar    
  33 H33           -0.7713    -0.2129     2.7672 H       
  34 H34           -0.2967     2.4027     1.6791 H       
  35 H35           -0.3172     2.0270     3.4194 H       
  36 H36            3.0215     3.4097     2.8646 H       
  37 H37            1.3733     5.3193     2.5949 H       
  38 H38            0.0072     4.1052     2.3477 H       
  39 H39            0.4560     3.1320     4.6468 H       
  40 H40            1.8221     4.3462     4.8940 H       
  41 H41            3.8492     2.8479     1.8298 H       
  42 H42            5.7652     2.5368    -1.2725 H       
  43 H43            5.5433     3.4691     0.2274 H       
  44 H44            6.4705     1.5799     1.5389 H       
  45 H45            6.6924     0.6476     0.0390 H       
  46 H46            8.3875     1.2839    -1.5832 H       
  47 H47           10.5780     2.3631    -1.9222 H       
  48 H48            7.8586     3.4936     2.0219 H       
  49 H49           11.6403     5.8575     2.8174 H       
  50 H50           11.9408     4.1415     2.4500 H       
  51 H51           12.5430     6.3082     0.6670 H       
  52 H52            8.2917     4.5077     3.0965 H       
  53 H53            9.5440     3.2855     4.9333 H       
  54 H54           11.1343     3.5862     4.0489 H       
  55 H55           10.7562     6.0886     4.2198 H       
  56 H56            9.1659     5.7880     5.1042 H       
  57 H57            4.3748     0.6051    -1.7551 H       
  58 H58            2.1880    -0.4758    -1.3979 H       
@<TRIPOS>BOND
   1    1    2 2
   2    2   32 1
   3    2    3 2
   4    2    4 am
   5    4    5 1
   6    4   33 1
   7    5    6 1
   8    5   34 1
   9    5   35 1
  10    6    7 1
  11    6   10 1
  12    7    9 1
  13    7    8 1
  14    7   36 1
  15    8    9 1
  16    8   37 1
  17    8   38 1
  18    9   39 1
  19    9   40 1
  20   10   32 ar
  21   10   11 ar
  22   11   12 ar
  23   11   41 1
  24   12   13 1
  25   12   30 ar
  26   13   14 1
  27   13   42 1
  28   13   43 1
  29   14   15 1
  30   14   44 1
  31   14   45 1
  32   15   20 ar
  33   15   16 ar
  34   16   17 ar
  35   16   46 1
  36   17   18 ar
  37   17   47 1
  38   18   24 1
  39   18   19 ar
  40   19   20 ar
  41   19   21 1
  42   20   48 1
  43   21   22 1
  44   21   27 1
  45   22   23 1
  46   22   49 1
  47   22   50 1
  48   23   24 am
  49   23   51 1
  50   24   25 2
  51   24   26 2
  52   27   29 1
  53   27   28 1
  54   27   52 1
  55   28   29 1
  56   28   53 1
  57   28   54 1
  58   29   55 1
  59   29   56 1
  60   30   31 ar
  61   30   57 1
  62   31   32 ar
  63   31   58 1

#	End of record

