#	Name: ASD01911306
#	Creating user name:	WinNT
#	Creation time:	15. 06. 2019 19:57

#	Modifying user name:	WinNT
#	Modification time:	15. 06. 2019 19:57

#	Program:	/corina/corina34_cracker 3.40 0067  02.08.2006

@<TRIPOS>MOLECULE
ASD01911306
  32   34    0    0    0
SMALL
NO_CHARGES


@<TRIPOS>ATOM
   1 C1            -0.0168     1.3882     0.0097 C.ar    
   2 C2             0.0021    -0.0041     0.0020 C.ar    
   3 N3             1.1400    -0.6800    -0.0086 N.ar    
   4 C4             2.3131    -0.0653    -0.0124 C.ar    
   5 C5             2.3594     1.3403    -0.0126 C.ar    
   6 C6             1.1686     2.0762     0.0021 C.ar    
   7 O7             3.4539    -0.7908    -0.0092 O.3     
   8 C8             4.6528    -0.1865    -0.4931 C.3     
   9 C9             4.8810     1.1472     0.2334 C.3     
  10 C10            3.6641     2.0158    -0.0331 C.2     
  11 O11            3.7640     3.2051    -0.2518 O.2     
  12 O12           -1.1705    -0.6820     0.0059 O.3     
  13 C13           -1.0949    -2.1090    -0.0023 C.3     
  14 C14           -2.4872    -2.6858     0.0036 C.ar    
  15 C15           -3.1335    -2.9438    -1.1908 C.ar    
  16 C16           -4.4105    -3.4729    -1.1854 C.ar    
  17 C17           -5.0412    -3.7443     0.0144 C.ar    
  18 C18           -4.3945    -3.4871     1.2088 C.ar    
  19 C19           -3.1158    -2.9621     1.2034 C.ar    
  20 H20           -0.9563     1.9207     0.0170 H       
  21 H21            1.1835     3.1560     0.0065 H       
  22 H22            5.4961    -0.8512    -0.3062 H       
  23 H23            4.5622    -0.0061    -1.5643 H       
  24 H24            4.9860     0.9735     1.3043 H       
  25 H25            5.7763     1.6330    -0.1546 H       
  26 H26           -0.5684    -2.4398    -0.8975 H       
  27 H27           -0.5569    -2.4494     0.8824 H       
  28 H28           -2.6408    -2.7318    -2.1282 H       
  29 H29           -4.9157    -3.6739    -2.1186 H       
  30 H30           -6.0392    -4.1570     0.0186 H       
  31 H31           -4.8874    -3.6988     2.1462 H       
  32 H32           -2.6106    -2.7611     2.1365 H       
@<TRIPOS>BOND
   1    1    2 ar
   2    1    6 ar
   3    1   20 1
   4    2    3 ar
   5    2   12 1
   6    3    4 ar
   7    4    5 ar
   8    4    7 1
   9    5    6 ar
  10    5   10 1
  11    6   21 1
  12    7    8 1
  13    8    9 1
  14    8   22 1
  15    8   23 1
  16    9   10 1
  17    9   24 1
  18    9   25 1
  19   10   11 2
  20   12   13 1
  21   13   14 1
  22   13   26 1
  23   13   27 1
  24   14   15 ar
  25   14   19 ar
  26   15   16 ar
  27   15   28 1
  28   16   17 ar
  29   16   29 1
  30   17   18 ar
  31   17   30 1
  32   18   19 ar
  33   18   31 1
  34   19   32 1

#	End of record

