#	Name: ASD01812602
#	Creating user name:	WinNT
#	Creation time:	15. 06. 2019 19:28

#	Modifying user name:	WinNT
#	Modification time:	15. 06. 2019 19:28

#	Program:	/corina/corina34_cracker 3.40 0067  02.08.2006

@<TRIPOS>MOLECULE
ASD01812602
  44   48    0    0    0
SMALL
NO_CHARGES


@<TRIPOS>ATOM
   1 F1             0.0021    -0.0041     0.0020 F       
   2 C2            -0.0162     1.3468     0.0094 C.ar    
   3 C3            -1.2233     2.0206     0.0303 C.ar    
   4 C4            -1.2409     3.4138     0.0380 C.ar    
   5 C5            -0.0409     4.1217     0.0245 C.ar    
   6 C6             1.1614     3.4396     0.0037 C.ar    
   7 F7             2.3256     4.1249    -0.0094 F       
   8 C8             1.1743     2.0546     0.0019 C.ar    
   9 C9             2.4875     1.3155    -0.0146 C.3     
  10 N10            2.8999     1.0834    -1.4011 N.am    
  11 C11            2.5507    -0.0885    -2.2118 C.3     
  12 C12            3.1987     0.1198    -3.5593 C.ar    
  13 N13            3.2246    -0.5948    -4.6618 N.ar    
  14 C14            3.8770    -0.1905    -5.7364 C.ar    
  15 C15            4.5646     1.0096    -5.7451 C.ar    
  16 C16            4.5674     1.7989    -4.6076 C.ar    
  17 C17            3.8672     1.3439    -3.4860 C.ar    
  18 C18            3.6559     1.9119    -2.1424 C.2     
  19 O19            4.1028     2.9753    -1.7591 O.2     
  20 C20           -2.5336     4.1413     0.0599 C.ar    
  21 C21           -3.7354     3.4356     0.0787 C.ar    
  22 C22           -4.9358     4.1102     0.0986 C.ar    
  23 C23           -4.9592     5.5046     0.1000 C.ar    
  24 N24           -6.0320     6.3958     0.1171 N.am    
  25 C25           -5.6297     7.6776     0.1115 C.2     
  26 O26           -6.3451     8.6570     0.1234 O.2     
  27 C27           -4.1161     7.6703     0.0880 C.3     
  28 C28           -3.7561     6.2021     0.0816 C.ar    
  29 C29           -2.5541     5.5366     0.0676 C.ar    
  30 H30           -2.1511     1.4679     0.0404 H       
  31 H31           -0.0500     5.2017     0.0300 H       
  32 H32            3.2455     1.9101     0.4952 H       
  33 H33            2.3726     0.3590     0.4952 H       
  34 H34            2.9382    -0.9947    -1.7462 H       
  35 H35            1.4687    -0.1576    -2.3234 H       
  36 H36            3.8739    -0.8072    -6.6229 H       
  37 H37            5.0945     1.3277    -6.6308 H       
  38 H38            5.0965     2.7403    -4.5871 H       
  39 H39           -3.7251     2.3556     0.0773 H       
  40 H40           -5.8633     3.5570     0.1127 H       
  41 H41           -6.9623     6.1214     0.1309 H       
  42 H42           -3.7457     8.1582    -0.8136 H       
  43 H43           -3.7179     8.1573     0.9781 H       
  44 H44           -1.6278     6.0918     0.0581 H       
@<TRIPOS>BOND
   1    1    2 1
   2    2    8 ar
   3    2    3 ar
   4    3    4 ar
   5    3   30 1
   6    4    5 ar
   7    4   20 1
   8    5    6 ar
   9    5   31 1
  10    6    7 1
  11    6    8 ar
  12    8    9 1
  13    9   10 1
  14    9   32 1
  15    9   33 1
  16   10   18 am
  17   10   11 1
  18   11   12 1
  19   11   34 1
  20   11   35 1
  21   12   17 ar
  22   12   13 ar
  23   13   14 ar
  24   14   15 ar
  25   14   36 1
  26   15   16 ar
  27   15   37 1
  28   16   17 ar
  29   16   38 1
  30   17   18 1
  31   18   19 2
  32   20   29 ar
  33   20   21 ar
  34   21   22 ar
  35   21   39 1
  36   22   23 ar
  37   22   40 1
  38   23   28 ar
  39   23   24 1
  40   24   25 am
  41   24   41 1
  42   25   26 2
  43   25   27 1
  44   27   28 1
  45   27   42 1
  46   27   43 1
  47   28   29 ar
  48   29   44 1

#	End of record

