#	Name: ASD04882545
#	Creating user name:	WinNT
#	Creation time:	15. 06. 2019 20:55

#	Modifying user name:	WinNT
#	Modification time:	15. 06. 2019 20:55

#	Program:	/corina/corina34_cracker 3.40 0067  02.08.2006

@<TRIPOS>MOLECULE
ASD04882545
  74   78    0    0    0
SMALL
NO_CHARGES


@<TRIPOS>ATOM
   1 C1            -0.0214     1.4009    -0.0088 C.ar    
   2 C2            -0.0112     0.0034    -0.0056 C.ar    
   3 C3            -1.2090    -0.7024    -0.0163 C.ar    
   4 C4            -2.4093    -0.0275    -0.0300 C.ar    
   5 C5            -2.4265     1.3701    -0.0333 C.ar    
   6 C6            -1.2238     2.0820    -0.0168 C.ar    
   7 N7             1.2002    -0.6830     0.0078 N.3     
   8 C8             1.3085    -1.5368     1.1990 C.3     
   9 C9             1.3718    -1.4723    -1.2198 C.3     
  10 C10            2.7458    -2.1463    -1.2018 C.3     
  11 N11            2.8541    -3.0002    -0.0107 N.3     
  12 C12            2.6825    -2.2108     1.2170 C.3     
  13 C13           -3.7125     2.0930    -0.0484 C.2     
  14 O14           -3.7265     3.3088    -0.0512 O.2     
  15 N15           -4.8718     1.4056    -0.0592 N.am    
  16 N16            1.1871     2.1111     0.0021 N.am    
  17 C17            4.0693    -3.6887     0.0028 C.ar    
  18 C18            1.2302     3.3601     0.5068 C.2     
  19 C19            2.5455     4.0893     0.6020 C.3     
  20 C20            5.2673    -2.9862     0.0130 C.ar    
  21 O21            0.2102     3.8972     0.8843 O.2     
  22 C22            3.1100     4.3483     2.0003 C.3     
  23 C23            6.4672    -3.6702     0.0268 C.ar    
  24 C24            6.4765    -5.0528     0.0299 C.ar    
  25 C25            5.2854    -5.7556     0.0198 C.ar    
  26 C26            4.0822    -5.0780     0.0118 C.ar    
  27 C27           -6.1488     2.1234    -0.0742 C.3     
  28 C28           -7.3001     1.1158    -0.0842 C.3     
  29 C29           -8.6338     1.8655    -0.0999 C.3     
  30 N30           -9.7362     0.9007    -0.1095 N.am    
  31 C31          -10.3722     0.3580     1.0967 C.3     
  32 C32          -11.1398    -0.8981     0.6283 C.3     
  33 C33          -11.3959    -0.5737    -0.8617 C.3     
  34 C34          -10.2990     0.4031    -1.2242 C.2     
  35 O35           -9.9704     0.6900    -2.3558 O.2     
  36 C36            2.7848    -5.8445     0.0012 C.3     
  37 C37            2.5283     5.5042     1.1840 C.3     
  38 F38            3.4268     6.4337     0.6491 F       
  39 F39            1.2927     6.0220     1.5870 F       
  40 H40           -1.1980    -1.7823    -0.0142 H       
  41 H41           -3.3381    -0.5785    -0.0387 H       
  42 H42           -1.2340     3.1619    -0.0192 H       
  43 H43            1.1905    -0.9276     2.0951 H       
  44 H44            0.5298    -2.2991     1.1720 H       
  45 H45            0.5939    -2.2339    -1.2743 H       
  46 H46            1.3000    -0.8160    -2.0871 H       
  47 H47            2.8638    -2.7556    -2.0979 H       
  48 H48            3.5245    -1.3840    -1.1749 H       
  49 H49            3.4604    -1.4493     1.2714 H       
  50 H50            2.7542    -2.8671     2.0843 H       
  51 H51           -4.8606     0.4357    -0.0570 H       
  52 H52            1.9923     1.7038    -0.3537 H       
  53 H53            3.2566     3.8827    -0.1978 H       
  54 H54            5.2607    -1.9062     0.0099 H       
  55 H55            2.5300     3.9912     2.8513 H       
  56 H56            4.1928     4.3120     2.1206 H       
  57 H57            7.3992    -3.1245     0.0348 H       
  58 H58            7.4161    -5.5852     0.0400 H       
  59 H59            5.2962    -6.8355     0.0219 H       
  60 H60           -6.2232     2.7513     0.8136 H       
  61 H61           -6.2044     2.7474    -0.9662 H       
  62 H62           -7.2258     0.4879    -0.9721 H       
  63 H63           -7.2446     0.4918     0.8078 H       
  64 H64           -8.7082     2.4934     0.7879 H       
  65 H65           -8.6894     2.4895    -0.9919 H       
  66 H66           -9.6152     0.0851     1.8320 H       
  67 H67          -11.0637     1.0870     1.5191 H       
  68 H68          -10.5253    -1.7923     0.7329 H       
  69 H69          -12.0789    -1.0063     1.1710 H       
  70 H70          -11.3214    -1.4771    -1.4670 H       
  71 H71          -12.3733    -0.1081    -0.9882 H       
  72 H72            2.4644    -6.0307     1.0263 H       
  73 H73            2.0231    -5.2624    -0.5175 H       
  74 H74            2.9285    -6.7949    -0.5128 H       
@<TRIPOS>BOND
   1    1    2 ar
   2    1   16 1
   3    1    6 ar
   4    2    3 ar
   5    2    7 1
   6    3    4 ar
   7    3   40 1
   8    4    5 ar
   9    4   41 1
  10    5    6 ar
  11    5   13 1
  12    6   42 1
  13    7    8 1
  14    7    9 1
  15    8   12 1
  16    8   43 1
  17    8   44 1
  18    9   10 1
  19    9   45 1
  20    9   46 1
  21   10   11 1
  22   10   47 1
  23   10   48 1
  24   11   12 1
  25   11   17 1
  26   12   49 1
  27   12   50 1
  28   13   14 2
  29   13   15 am
  30   15   27 1
  31   15   51 1
  32   16   18 am
  33   16   52 1
  34   17   20 ar
  35   17   26 ar
  36   18   21 2
  37   18   19 1
  38   19   37 1
  39   19   22 1
  40   19   53 1
  41   20   23 ar
  42   20   54 1
  43   22   37 1
  44   22   55 1
  45   22   56 1
  46   23   24 ar
  47   23   57 1
  48   24   25 ar
  49   24   58 1
  50   25   26 ar
  51   25   59 1
  52   26   36 1
  53   27   28 1
  54   27   60 1
  55   27   61 1
  56   28   29 1
  57   28   62 1
  58   28   63 1
  59   29   30 1
  60   29   64 1
  61   29   65 1
  62   30   31 1
  63   30   34 am
  64   31   32 1
  65   31   66 1
  66   31   67 1
  67   32   33 1
  68   32   68 1
  69   32   69 1
  70   33   34 1
  71   33   70 1
  72   33   71 1
  73   34   35 2
  74   36   72 1
  75   36   73 1
  76   36   74 1
  77   37   38 1
  78   37   39 1

#	End of record

