#	Name: ASD01901226
#	Creating user name:	WinNT
#	Creation time:	15. 06. 2019 19:53

#	Modifying user name:	WinNT
#	Modification time:	15. 06. 2019 19:53

#	Program:	/corina/corina34_cracker 3.40 0067  02.08.2006

@<TRIPOS>MOLECULE
ASD01901226
  46   49    0    0    0
SMALL
NO_CHARGES


@<TRIPOS>ATOM
   1 C1            -0.0166     1.3750     0.0096 C.ar    
   2 C2             0.0021    -0.0041     0.0020 C.ar    
   3 C3             1.2078    -0.6830    -0.0131 C.ar    
   4 C4             2.4027     0.0149    -0.0208 C.ar    
   5 C5             2.3997     1.3941    -0.0134 C.ar    
   6 C6             1.1860     2.0866     0.0019 C.ar    
   7 C7             1.1748     3.5185     0.0093 C.1     
   8 C8             1.1656     4.6925     0.0153 C.1     
   9 C9             1.1543     6.1244     0.0226 C.ar    
  10 C10           -0.0666     8.1943     0.0507 C.ar    
  11 C11           -0.0605     6.8156     0.0433 C.ar    
  12 C12            2.3585     6.8349     0.0149 C.ar    
  13 C13            2.3438     8.2124     0.0225 C.ar    
  14 C14            1.1340     8.8967     0.0377 C.ar    
  15 N15            1.1239    10.2968     0.0453 N.am    
  16 N16            1.1328    12.2900     1.3066 N.am    
  17 C17            1.1410    10.9488     1.2184 C.2     
  18 C18            1.1027    10.9655    -1.1281 C.2     
  19 C19            1.0924    12.4385    -1.0922 C.ar    
  20 C20            1.1053    13.0735     0.1620 C.ar    
  21 C21            1.0964    14.4583     0.2296 C.ar    
  22 C22            1.0711    13.1997    -2.2588 C.ar    
  23 C23            1.0627    14.5759    -2.1716 C.ar    
  24 C24            1.0684    15.2010    -0.9339 C.ar    
  25 O25            1.0927    10.3673    -2.1867 O.2     
  26 Cl26          -1.5742     9.0546     0.0759 Cl      
  27 O27            1.1645    10.2983     2.2453 O.2     
  28 C28            1.1522    12.9307     2.6239 C.3     
  29 C29            1.0583    16.7061    -0.8582 C.3     
  30 H30           -0.9584     1.9035     0.0169 H       
  31 H31           -0.9266    -0.5554     0.0083 H       
  32 H32            1.2163    -1.7630    -0.0187 H       
  33 H33            3.3399    -0.5217    -0.0323 H       
  34 H34            3.3330     1.9375    -0.0190 H       
  35 H35           -0.9928     6.2705     0.0531 H       
  36 H36            3.2991     6.3044     0.0034 H       
  37 H37            3.2738     8.7615     0.0169 H       
  38 H38            1.1111    14.9541     1.1889 H       
  39 H39            1.0615    12.7156    -3.2241 H       
  40 H40            1.0461    15.1706    -3.0730 H       
  41 H41            1.1720    12.1654     3.3998 H       
  42 H42            2.0394    13.5581     2.7098 H       
  43 H43            0.2597    13.5451     2.7423 H       
  44 H44            2.0833    17.0768    -0.8597 H       
  45 H45            0.5247    17.1096    -1.7187 H       
  46 H46            0.5596    17.0204     0.0586 H       
@<TRIPOS>BOND
   1    1    2 ar
   2    1    6 ar
   3    1   30 1
   4    2    3 ar
   5    2   31 1
   6    3    4 ar
   7    3   32 1
   8    4    5 ar
   9    4   33 1
  10    5    6 ar
  11    5   34 1
  12    6    7 1
  13    7    8 3
  14    8    9 1
  15    9   12 ar
  16    9   11 ar
  17   10   11 ar
  18   10   14 ar
  19   10   26 1
  20   11   35 1
  21   12   13 ar
  22   12   36 1
  23   13   14 ar
  24   13   37 1
  25   14   15 1
  26   15   18 am
  27   15   17 am
  28   16   17 am
  29   16   20 1
  30   16   28 1
  31   17   27 2
  32   18   19 1
  33   18   25 2
  34   19   22 ar
  35   19   20 ar
  36   20   21 ar
  37   21   24 ar
  38   21   38 1
  39   22   23 ar
  40   22   39 1
  41   23   24 ar
  42   23   40 1
  43   24   29 1
  44   28   41 1
  45   28   42 1
  46   28   43 1
  47   29   44 1
  48   29   45 1
  49   29   46 1

#	End of record

