#	Name: ASD01816752
#	Creating user name:	WinNT
#	Creation time:	15. 06. 2019 19:35

#	Modifying user name:	WinNT
#	Modification time:	15. 06. 2019 19:35

#	Program:	/corina/corina34_cracker 3.40 0067  02.08.2006

@<TRIPOS>MOLECULE
ASD01816752
  50   53    0    0    0
SMALL
NO_CHARGES


@<TRIPOS>ATOM
   1 C1            -0.0166     1.3959     0.0188 C.2     
   2 C2             0.0025    -0.0053    -0.0011 C.2     
   3 C3             1.1989    -0.6602    -0.0251 C.2     
   4 C4             2.3922     0.0815    -0.0294 C.2     
   5 N5             2.3439     1.4490    -0.0092 N.am    
   6 C6             1.1421     2.0926     0.0142 C.2     
   7 C7             3.6230    -0.5886    -0.0540 C.2     
   8 C8             4.7879     0.1231    -0.0584 C.2     
   9 C9             4.7340     1.5284    -0.0381 C.2     
  10 C10            3.4813     2.1731    -0.0133 C.2     
  11 C11            3.6604    -2.0950    -0.0750 C.3     
  12 O12            3.4256     3.3913     0.0044 O.2     
  13 C13            5.9710     2.3159    -0.0418 C.2     
  14 N14            7.1647     1.6963     0.0459 N.am    
  15 O15            5.9198     3.5292    -0.1240 O.2     
  16 N16            3.7760    -2.5626    -1.4628 N.3     
  17 C17            4.0527    -4.0040    -1.5111 C.3     
  18 C18            4.3103    -4.4271    -2.9591 C.3     
  19 C19            3.0805    -4.0957    -3.8090 C.3     
  20 C20            2.7851    -2.5971    -3.7027 C.3     
  21 C21            2.5717    -2.2271    -2.2332 C.3     
  22 C22            3.3507    -4.4551    -5.2473 C.ar    
  23 N23            4.5881    -4.6856    -5.6400 N.ar    
  24 C24            4.8718    -5.0031    -6.8883 C.ar    
  25 C25            3.8717    -5.1054    -7.8364 C.ar    
  26 C26            2.5578    -4.8700    -7.4607 C.ar    
  27 C27            2.2978    -4.5447    -6.1384 C.ar    
  28 C28            1.9228    -4.8613    -3.3185 C.1     
  29 N29            1.0294    -5.4520    -2.9399 N.1     
  30 H30           -0.9603     1.9211     0.0334 H       
  31 H31           -0.9228    -0.5623     0.0028 H       
  32 H32            1.2286    -1.7397    -0.0403 H       
  33 H33            1.1154     3.1722     0.0300 H       
  34 H34            5.7397    -0.3869    -0.0769 H       
  35 H35            4.5183    -2.4452     0.4991 H       
  36 H36            2.7438    -2.4874     0.3655 H       
  37 H37            7.2041     0.7373     0.1865 H       
  38 H38            7.9843     2.2092    -0.0316 H       
  39 H39            4.9319    -4.2255    -0.9061 H       
  40 H40            3.1954    -4.5517    -1.1197 H       
  41 H41            5.1759    -3.8899    -3.3466 H       
  42 H42            4.5003    -5.4997    -2.9965 H       
  43 H43            3.6267    -2.0311    -4.1020 H       
  44 H44            1.8854    -2.3623    -4.2715 H       
  45 H45            1.7214    -2.7831    -1.8384 H       
  46 H46            2.3753    -1.1579    -2.1527 H       
  47 H47            5.8976    -5.1849    -7.1728 H       
  48 H48            4.1105    -5.3650    -8.8572 H       
  49 H49            1.7556    -4.9423    -8.1802 H       
  50 H50            1.2863    -4.3552    -5.8106 H       
@<TRIPOS>BOND
   1    1    2 1
   2    1    6 2
   3    1   30 1
   4    2    3 2
   5    2   31 1
   6    3    4 1
   7    3   32 1
   8    4    5 1
   9    4    7 2
  10    5    6 1
  11    5   10 am
  12    6   33 1
  13    7    8 1
  14    7   11 1
  15    8    9 2
  16    8   34 1
  17    9   10 1
  18    9   13 1
  19   10   12 2
  20   11   16 1
  21   11   35 1
  22   11   36 1
  23   13   15 2
  24   13   14 am
  25   14   37 1
  26   14   38 1
  27   16   17 1
  28   16   21 1
  29   17   18 1
  30   17   39 1
  31   17   40 1
  32   18   19 1
  33   18   41 1
  34   18   42 1
  35   19   20 1
  36   19   22 1
  37   19   28 1
  38   20   21 1
  39   20   43 1
  40   20   44 1
  41   21   45 1
  42   21   46 1
  43   22   23 ar
  44   22   27 ar
  45   23   24 ar
  46   24   25 ar
  47   24   47 1
  48   25   26 ar
  49   25   48 1
  50   26   27 ar
  51   26   49 1
  52   27   50 1
  53   28   29 3

#	End of record

