#	Name: ASD06170053
#	Creating user name:	WinNT
#	Creation time:	15. 06. 2019 21:05

#	Modifying user name:	WinNT
#	Modification time:	15. 06. 2019 21:05

#	Program:	/corina/corina34_cracker 3.40 0067  02.08.2006

@<TRIPOS>MOLECULE
ASD06170053
  70   74    0    0    0
SMALL
NO_CHARGES


@<TRIPOS>ATOM
   1 N1             0.0359     1.5277    -0.3348 N.pl3   
   2 N2            -0.0070     0.1428    -0.1483 N.am    
   3 C3             1.2327    -0.2870     0.1659 C.2     
   4 C4             2.0980     0.9032     0.1750 C.2     
   5 C5             1.2903     1.9779    -0.1418 C.2     
   6 C6             3.5365     0.9410     0.4648 C.2     
   7 O7             4.1349     2.0003     0.4381 O.2     
   8 N8             4.1945    -0.1974     0.7604 N.am    
   9 C9            -1.1446    -0.6622    -0.2670 C.ar    
  10 C10           -2.0170    -0.4815    -1.3324 C.ar    
  11 C11           -3.1391    -1.2784    -1.4470 C.ar    
  12 C12           -3.3948    -2.2551    -0.5021 C.ar    
  13 C13           -2.5282    -2.4376     0.5600 C.ar    
  14 C14           -1.4013    -1.6479     0.6772 C.ar    
  15 O15            1.5692    -1.4334     0.3967 O.2     
  16 C16            1.7376     3.4126    -0.2534 C.3     
  17 C17           -1.1122     2.3641    -0.6932 C.3     
  18 C18           -1.7038     2.9877     0.5725 C.3     
  19 C19           -2.9028     3.8612     0.1981 C.3     
  20 C20           -3.4175     4.5826     1.4454 C.3     
  21 O21           -2.1281     1.9515     1.4604 O.3     
  22 C22            5.5903    -0.1904     0.8728 C.ar    
  23 C23            6.2506     0.9705     1.2541 C.ar    
  24 C24            7.6283     0.9764     1.3652 C.ar    
  25 C25            8.3515    -0.1793     1.0952 C.ar    
  26 C26            7.6913    -1.3376     0.7146 C.ar    
  27 C27            6.3139    -1.3453     0.6085 C.ar    
  28 O28            9.7071    -0.1739     1.2039 O.3     
  29 N29           11.3233    -0.1222     4.9979 N.ar    
  30 C30           10.0244    -0.0327     4.8324 C.ar    
  31 C31            9.4442    -0.0465     3.5706 C.ar    
  32 C32           10.2457    -0.1573     2.4477 C.ar    
  33 C33           11.6431    -0.2531     2.6377 C.ar    
  34 C34           12.5191    -0.3675     1.5484 C.ar    
  35 C35           13.8598    -0.4574     1.7639 C.ar    
  36 C36           14.3784    -0.4372     3.0618 C.ar    
  37 C37           13.5447    -0.3264     4.1515 C.ar    
  38 C38           12.1575    -0.2317     3.9571 C.ar    
  39 O39           15.7205    -0.5284     3.2499 O.3     
  40 C40           16.5334    -0.6417     2.0801 C.3     
  41 F41            8.2716     2.1051     1.7357 F       
  42 H42            3.7013    -1.0217     0.8954 H       
  43 H43           -1.8183     0.2816    -2.0704 H       
  44 H44           -3.8179    -1.1383    -2.2753 H       
  45 H45           -4.2734    -2.8765    -0.5935 H       
  46 H46           -2.7307    -3.2013     1.2963 H       
  47 H47           -0.7227    -1.7937     1.5047 H       
  48 H48            1.6413     3.8998     0.7169 H       
  49 H49            2.7788     3.4447    -0.5743 H       
  50 H50            1.1163     3.9312    -0.9836 H       
  51 H51           -0.7885     3.1544    -1.3705 H       
  52 H52           -1.8685     1.7519    -1.1844 H       
  53 H53           -0.9475     3.5999     1.0636 H       
  54 H54           -2.5984     4.5962    -0.5470 H       
  55 H55           -3.6949     3.2347    -0.2120 H       
  56 H56           -3.7220     3.8477     2.1905 H       
  57 H57           -2.6254     5.2092     1.8555 H       
  58 H58           -4.2717     5.2050     1.1787 H       
  59 H59           -2.8023     1.3665     1.0885 H       
  60 H60            5.6878     1.8682     1.4634 H       
  61 H61            8.2539    -2.2353     0.5049 H       
  62 H62            5.8002    -2.2491     0.3159 H       
  63 H63            9.3891     0.0542     5.7015 H       
  64 H64            8.3719     0.0281     3.4660 H       
  65 H65           12.1305    -0.3846     0.5408 H       
  66 H66           14.5309    -0.5457     0.9223 H       
  67 H67           13.9553    -0.3124     5.1503 H       
  68 H68           16.3851     0.2341     1.4484 H       
  69 H69           17.5818    -0.7064     2.3711 H       
  70 H70           16.2533    -1.5392     1.5286 H       
@<TRIPOS>BOND
   1    1    2 1
   2    1    5 1
   3    1   17 1
   4    2    3 am
   5    2    9 1
   6    3    4 1
   7    3   15 2
   8    4    5 2
   9    4    6 1
  10    5   16 1
  11    6    7 2
  12    6    8 am
  13    8   22 1
  14    8   42 1
  15    9   10 ar
  16    9   14 ar
  17   10   11 ar
  18   10   43 1
  19   11   12 ar
  20   11   44 1
  21   12   13 ar
  22   12   45 1
  23   13   14 ar
  24   13   46 1
  25   14   47 1
  26   16   48 1
  27   16   49 1
  28   16   50 1
  29   17   18 1
  30   17   51 1
  31   17   52 1
  32   18   19 1
  33   18   21 1
  34   18   53 1
  35   19   20 1
  36   19   54 1
  37   19   55 1
  38   20   56 1
  39   20   57 1
  40   20   58 1
  41   21   59 1
  42   22   23 ar
  43   22   27 ar
  44   23   24 ar
  45   23   60 1
  46   24   25 ar
  47   24   41 1
  48   25   26 ar
  49   25   28 1
  50   26   27 ar
  51   26   61 1
  52   27   62 1
  53   28   32 1
  54   29   30 ar
  55   29   38 ar
  56   30   31 ar
  57   30   63 1
  58   31   32 ar
  59   31   64 1
  60   32   33 ar
  61   33   34 ar
  62   33   38 ar
  63   34   35 ar
  64   34   65 1
  65   35   36 ar
  66   35   66 1
  67   36   37 ar
  68   36   39 1
  69   37   38 ar
  70   37   67 1
  71   39   40 1
  72   40   68 1
  73   40   69 1
  74   40   70 1

#	End of record

