#	Name: ASD01230146
#	Creating user name:	WinNT
#	Creation time:	15. 06. 2019 19:11

#	Modifying user name:	WinNT
#	Modification time:	15. 06. 2019 19:11

#	Program:	/corina/corina34_cracker 3.40 0067  02.08.2006

@<TRIPOS>MOLECULE
ASD01230146
  36   38    0    0    0
SMALL
NO_CHARGES


@<TRIPOS>ATOM
   1 C1            -0.4181     0.3230    -0.3596 C.3     
   2 C2            -1.0783    -1.0670    -0.4475 C.3     
   3 O3            -0.4208    -1.9915     0.4203 O.3     
   4 C4             0.9845    -2.1295     0.2267 C.3     
   5 C5             1.6518    -0.7804     0.5205 C.3     
   6 C6             1.0919     0.2511    -0.4619 C.3     
   7 O7            -0.8548     0.8417     0.9049 O.3     
   8 C8            -2.2470     0.4949     1.0275 C.3     
   9 C9            -2.4732    -0.7828     0.1762 C.3     
  10 C10           -3.0937     1.5852     0.3379 C.3     
  11 N11           -4.1420     0.8379    -0.4025 N.3     
  12 C12           -3.4280    -0.3426    -0.9527 C.3     
  13 C13           -2.6495     0.2817     2.4881 C.3     
  14 C14           -1.7127    -0.7106     3.1277 C.2     
  15 O15           -0.7397    -1.0978     2.5251 O.2     
  16 O16           -1.9594    -1.1642     4.3667 O.3     
  17 C17           -3.7216     2.4906     1.3660 C.2     
  18 O18           -4.8310     2.2541     1.7822 O.2     
  19 O19           -3.0485     3.5597     1.8194 O.3     
  20 H20           -0.8069     0.9614    -1.1529 H       
  21 H21           -1.1359    -1.4341    -1.4722 H       
  22 H22            1.3750    -2.8869     0.9064 H       
  23 H23            1.1852    -2.4204    -0.8044 H       
  24 H24            1.4287    -0.4742     1.5425 H       
  25 H25            2.7303    -0.8668     0.3886 H       
  26 H26            1.3700    -0.0321    -1.4771 H       
  27 H27            1.5143     1.2298    -0.2344 H       
  28 H28           -2.8534    -1.6208     0.7605 H       
  29 H29           -2.4794     2.1625    -0.3530 H       
  30 H30           -4.8879     0.5540     0.2148 H       
  31 H31           -2.8622    -0.0640    -1.8417 H       
  32 H32           -4.1345    -1.1395    -1.1852 H       
  33 H33           -2.5941     1.2302     3.0224 H       
  34 H34           -3.6692    -0.1009     2.5319 H       
  35 H35           -1.3303    -1.7995     4.7349 H       
  36 H36           -3.4924     4.1109     2.4784 H       
@<TRIPOS>BOND
   1    1    2 1
   2    1    6 1
   3    1    7 1
   4    1   20 1
   5    2    3 1
   6    2    9 1
   7    2   21 1
   8    3    4 1
   9    4    5 1
  10    4   22 1
  11    4   23 1
  12    5    6 1
  13    5   24 1
  14    5   25 1
  15    6   26 1
  16    6   27 1
  17    7    8 1
  18    8    9 1
  19    8   13 1
  20    8   10 1
  21    9   12 1
  22    9   28 1
  23   10   11 1
  24   10   17 1
  25   10   29 1
  26   11   12 1
  27   11   30 1
  28   12   31 1
  29   12   32 1
  30   13   14 1
  31   13   33 1
  32   13   34 1
  33   14   15 2
  34   14   16 1
  35   16   35 1
  36   17   18 2
  37   17   19 1
  38   19   36 1

#	End of record

