#	Name: ASD03240436
#	Creating user name:	WinNT
#	Creation time:	15. 06. 2019 20:34

#	Modifying user name:	WinNT
#	Modification time:	15. 06. 2019 20:34

#	Program:	/corina/corina34_cracker 3.40 0067  02.08.2006

@<TRIPOS>MOLECULE
ASD03240436
  42   45    0    0    0
SMALL
NO_CHARGES


@<TRIPOS>ATOM
   1 C1            -0.0167     1.3782     0.0096 C.ar    
   2 C2             0.0021    -0.0041     0.0020 C.ar    
   3 C3             2.5019     1.5048    -2.0839 C.ar    
   4 C4             1.6970     2.4141    -1.4218 C.ar    
   5 C5             1.2782     2.1491     0.0014 C.3     
   6 C6             2.8884     1.7427    -3.3875 C.ar    
   7 C7             2.4663     2.9010    -4.0361 C.ar    
   8 C8             1.6562     3.8136    -3.3644 C.ar    
   9 C9             1.2755     3.5660    -2.0610 C.ar    
  10 C10            2.8793     3.1623    -5.4381 C.2     
  11 C11           -1.1852    -0.7116     0.0096 C.ar    
  12 C12           -2.3926    -0.0363     0.0247 C.ar    
  13 C13           -2.4107     1.3471     0.0323 C.ar    
  14 C14           -1.2228     2.0536     0.0190 C.ar    
  15 Cl15          -3.8842    -0.9243     0.0336 Cl      
  16 C16            1.0857     3.4796     0.7339 C.3     
  17 N17            0.7527     3.2147     2.1411 N.3     
  18 C18            1.8147     2.4315     2.7892 C.3     
  19 C19            1.9999     1.1115     2.0361 C.3     
  20 O20            2.2916     1.3875     0.6635 O.3     
  21 C21            2.5405     4.2499    -6.1890 C.2     
  22 N22            3.1165     4.1053    -7.3995 N.pl3   
  23 N23            3.8303     2.9008    -7.4033 N.2     
  24 C24            3.6972     2.3356    -6.2327 C.2     
  25 H25            0.9446    -0.5312    -0.0102 H       
  26 H26            2.8323     0.6093    -1.5786 H       
  27 H27            3.5172     1.0322    -3.9035 H       
  28 H28            1.3262     4.7132    -3.8628 H       
  29 H29            0.6471     4.2727    -1.5394 H       
  30 H30           -1.1704    -1.7915     0.0033 H       
  31 H31           -3.3529     1.8749     0.0441 H       
  32 H32           -1.2368     3.1335     0.0249 H       
  33 H33            2.0063     4.0608     0.6809 H       
  34 H34            0.2746     4.0382     0.2668 H       
  35 H35            0.5817     4.0747     2.6403 H       
  36 H36            2.7470     2.9959     2.7691 H       
  37 H37            1.5357     2.2251     3.8225 H       
  38 H38            2.8247     0.5528     2.4783 H       
  39 H39            1.0845     0.5234     2.1019 H       
  40 H40            1.9227     5.0768    -5.8713 H       
  41 H41            3.0479     4.7281    -8.1400 H       
  42 H42            4.1325     1.3948    -5.9297 H       
@<TRIPOS>BOND
   1    1    2 ar
   2    1    5 1
   3    1   14 ar
   4    2   11 ar
   5    2   25 1
   6    3    4 ar
   7    3    6 ar
   8    3   26 1
   9    4    5 1
  10    4    9 ar
  11    5   16 1
  12    5   20 1
  13    6    7 ar
  14    6   27 1
  15    7    8 ar
  16    7   10 1
  17    8    9 ar
  18    8   28 1
  19    9   29 1
  20   10   21 2
  21   10   24 1
  22   11   12 ar
  23   11   30 1
  24   12   13 ar
  25   12   15 1
  26   13   14 ar
  27   13   31 1
  28   14   32 1
  29   16   17 1
  30   16   33 1
  31   16   34 1
  32   17   18 1
  33   17   35 1
  34   18   19 1
  35   18   36 1
  36   18   37 1
  37   19   20 1
  38   19   38 1
  39   19   39 1
  40   21   22 1
  41   21   40 1
  42   22   23 1
  43   22   41 1
  44   23   24 2
  45   24   42 1

#	End of record

