#	Name: ASD05730128
#	Creating user name:	WinNT
#	Creation time:	15. 06. 2019 21:02

#	Modifying user name:	WinNT
#	Modification time:	15. 06. 2019 21:02

#	Program:	/corina/corina34_cracker 3.40 0067  02.08.2006

@<TRIPOS>MOLECULE
ASD05730128
  80   85    0    0    0
SMALL
NO_CHARGES


@<TRIPOS>ATOM
   1 C1             0.0292     1.5030     0.0325 C.3     
   2 C2             0.0369    -0.0039     0.0184 C.ar    
   3 C3            -0.9921    -0.7047     0.6204 C.ar    
   4 C4            -0.9883    -2.0857     0.6089 C.ar    
   5 C5             0.0506    -2.7707    -0.0083 C.ar    
   6 C6             1.0826    -2.0636    -0.6120 C.ar    
   7 C7             1.0700    -0.6827    -0.6014 C.ar    
   8 N8             0.0578    -4.1686    -0.0213 N.pl3   
   9 C9             0.5620    -4.8467    -1.1146 C.ar    
  10 N10            0.6614    -6.1659    -1.0566 N.ar    
  11 C11            1.1408    -6.8525    -2.0877 C.ar    
  12 C12            1.5413    -6.1482    -3.2438 C.ar    
  13 C13            1.4160    -4.7509    -3.2556 C.ar    
  14 N14            0.9243    -4.1518    -2.1873 N.ar    
  15 N15            1.2477    -8.2194    -2.0361 N.am    
  16 C16            1.7350    -8.9105    -3.0845 C.2     
  17 C17            2.1598    -8.2106    -4.2987 C.2     
  18 C18            2.0556    -6.8469    -4.3599 C.2     
  19 C19            0.8280    -8.9344    -0.8283 C.3     
  20 O20            1.8232   -10.1238    -3.0221 O.2     
  21 C21            2.6961    -8.9717    -5.4513 C.ar    
  22 S22            1.5173     2.1139     0.8816 S.3     
  23 C23           -0.2902    -9.9176    -1.1803 C.3     
  24 C24            1.9110    -9.1658    -6.5901 C.ar    
  25 C25            2.4179    -9.8768    -7.6612 C.ar    
  26 C26            3.6991   -10.3954    -7.6058 C.ar    
  27 C27            4.4803   -10.2062    -6.4801 C.ar    
  28 C28            3.9884    -9.4923    -5.4061 C.ar    
  29 S29            4.3386   -11.3014    -8.9751 S.o2    
  30 C30            0.0385     2.0314    -1.4059 C.3     
  31 N31           -0.0101     3.4953    -1.3986 N.3     
  32 C32            1.2541     4.0973    -0.9687 C.3     
  33 C33            1.4389     3.8987     0.5396 C.3     
  34 C34            2.0187    -9.7019    -0.2503 C.3     
  35 C35           -0.4216     4.0150    -2.7096 C.3     
  36 F36            0.6593    -8.6602    -6.6442 F       
  37 C37            5.1347   -10.0469   -10.0158 C.3     
  38 C38            5.6277   -10.6951   -11.3132 C.3     
  39 C39            4.1233    -8.9488   -10.3589 C.3     
  40 C40            4.7806    -7.9366   -11.3008 C.3     
  41 O41            5.2441    -8.6099   -12.4730 O.3     
  42 C42            6.2270    -9.6154   -12.2182 C.3     
  43 O43            5.3114   -12.1636    -8.4012 O.2     
  44 O44            3.1848   -11.8243    -9.6189 O.2     
  45 H45           -0.8607     1.8598     0.5511 H       
  46 H46           -1.7994    -0.1715     1.1004 H       
  47 H47           -1.7920    -2.6324     1.0795 H       
  48 H48            1.8920    -2.5932    -1.0924 H       
  49 H49            1.8719    -0.1323    -1.0710 H       
  50 H50           -0.2913    -4.6625     0.7370 H       
  51 H51            1.7120    -4.1780    -4.1219 H       
  52 H52            2.3633    -6.3128    -5.2467 H       
  53 H53            0.4641    -8.2192    -0.0906 H       
  54 H54            0.0737   -10.6328    -1.9180 H       
  55 H55           -0.6025   -10.4496    -0.2817 H       
  56 H56           -1.1385    -9.3708    -1.5921 H       
  57 H57            1.8127   -10.0281    -8.5428 H       
  58 H58            5.4796   -10.6141    -6.4433 H       
  59 H59            4.6001    -9.3459    -4.5281 H       
  60 H60            0.9486     1.7017    -1.9070 H       
  61 H61           -0.8287     1.6430    -1.9401 H       
  62 H62            2.0798     3.6241    -1.5001 H       
  63 H63            1.2429     5.1635    -1.1949 H       
  64 H64            0.5952     4.3370     1.0727 H       
  65 H65            2.3656     4.3742     0.8607 H       
  66 H66            2.8153    -9.0015     0.0005 H       
  67 H67            1.7064   -10.2340     0.6483 H       
  68 H68            2.3826   -10.4172    -0.9879 H       
  69 H69           -1.4124     3.6337    -2.9568 H       
  70 H70           -0.4493     5.1041    -2.6763 H       
  71 H71            0.2915     3.6927    -3.4683 H       
  72 H72            5.9794    -9.6123    -9.4814 H       
  73 H73            6.3890   -11.4401   -11.0817 H       
  74 H74            4.7911   -11.1738   -11.8220 H       
  75 H75            3.2563    -9.3922   -10.8485 H       
  76 H76            3.8086    -8.4449    -9.4451 H       
  77 H77            4.0525    -7.1760   -11.5824 H       
  78 H78            5.6232    -7.4642   -10.7959 H       
  79 H79            7.0885    -9.1650   -11.7253 H       
  80 H80            6.5407   -10.0642   -13.1607 H       
@<TRIPOS>BOND
   1    1    2 1
   2    1   22 1
   3    1   30 1
   4    1   45 1
   5    2    3 ar
   6    2    7 ar
   7    3    4 ar
   8    3   46 1
   9    4    5 ar
  10    4   47 1
  11    5    6 ar
  12    5    8 1
  13    6    7 ar
  14    6   48 1
  15    7   49 1
  16    8    9 1
  17    8   50 1
  18    9   10 ar
  19    9   14 ar
  20   10   11 ar
  21   11   12 ar
  22   11   15 1
  23   12   13 ar
  24   12   18 1
  25   13   14 ar
  26   13   51 1
  27   15   16 am
  28   15   19 1
  29   16   17 1
  30   16   20 2
  31   17   18 2
  32   17   21 1
  33   18   52 1
  34   19   34 1
  35   19   23 1
  36   19   53 1
  37   21   24 ar
  38   21   28 ar
  39   22   33 1
  40   23   54 1
  41   23   55 1
  42   23   56 1
  43   24   25 ar
  44   24   36 1
  45   25   26 ar
  46   25   57 1
  47   26   27 ar
  48   26   29 1
  49   27   28 ar
  50   27   58 1
  51   28   59 1
  52   29   37 1
  53   29   43 2
  54   29   44 2
  55   30   31 1
  56   30   60 1
  57   30   61 1
  58   31   32 1
  59   31   35 1
  60   32   33 1
  61   32   62 1
  62   32   63 1
  63   33   64 1
  64   33   65 1
  65   34   66 1
  66   34   67 1
  67   34   68 1
  68   35   69 1
  69   35   70 1
  70   35   71 1
  71   37   38 1
  72   37   39 1
  73   37   72 1
  74   38   42 1
  75   38   73 1
  76   38   74 1
  77   39   40 1
  78   39   75 1
  79   39   76 1
  80   40   41 1
  81   40   77 1
  82   40   78 1
  83   41   42 1
  84   42   79 1
  85   42   80 1

#	End of record

