#	Name: ASD00071001
#	Creating user name:	WinNT
#	Creation time:	15. 06. 2019 18:30

#	Modifying user name:	WinNT
#	Modification time:	15. 06. 2019 18:30

#	Program:	/corina/corina34_cracker 3.40 0067  02.08.2006

@<TRIPOS>MOLECULE
ASD00071001
  33   34    0    0    0
SMALL
NO_CHARGES


@<TRIPOS>ATOM
   1 C1            -0.0169     1.4623     0.0190 C.2     
   2 C2             0.0025    -0.0041     0.0064 C.ar    
   3 C3             1.2212    -0.6945    -0.1193 C.ar    
   4 C4             1.2287    -2.0832    -0.1302 C.ar    
   5 C5             0.0457    -2.7838    -0.0183 C.ar    
   6 C6            -1.1649    -2.1078     0.1064 C.ar    
   7 C7            -1.1919    -0.7256     0.1251 C.ar    
   8 O8            -1.0755     2.0548     0.0365 O.2     
   9 N9            -2.3588    -2.8304     0.2193 N.3     
  10 C10           -2.1042    -4.2773     0.1835 C.3     
  11 C11           -3.4211    -5.0296     0.3889 C.3     
  12 N12           -4.3739    -4.6393    -0.6596 N.3     
  13 C13           -4.6286    -3.1924    -0.6238 C.3     
  14 C14           -3.3117    -2.4401    -0.8293 C.3     
  15 C15           -5.6266    -5.3974    -0.5412 C.3     
  16 N16            2.4134     0.0103    -0.2325 N.pl3   
  17 H17            0.9111     2.0147     0.0172 H       
  18 H18            2.1631    -2.6160    -0.2269 H       
  19 H19            0.0588    -3.8637    -0.0279 H       
  20 H20           -2.1319    -0.2037     0.2269 H       
  21 H21           -1.6778    -4.5477    -0.7826 H       
  22 H22           -1.4058    -4.5433     0.9769 H       
  23 H23           -3.2392    -6.1029     0.3338 H       
  24 H24           -3.8338    -4.7800     1.3664 H       
  25 H25           -5.3270    -2.9264    -1.4172 H       
  26 H26           -5.0550    -2.9220     0.3422 H       
  27 H27           -3.4936    -1.3668    -0.7742 H       
  28 H28           -2.8990    -2.6897    -1.8068 H       
  29 H29           -6.0784    -5.2030     0.4315 H       
  30 H30           -6.3138    -5.0890    -1.3292 H       
  31 H31           -5.4172    -6.4627    -0.6382 H       
  32 H32            2.4003     0.9778    -0.3010 H       
  33 H33            3.2588    -0.4653    -0.2430 H       
@<TRIPOS>BOND
   1    1    2 1
   2    1    8 2
   3    1   17 1
   4    2    3 ar
   5    2    7 ar
   6    3    4 ar
   7    3   16 1
   8    4    5 ar
   9    4   18 1
  10    5    6 ar
  11    5   19 1
  12    6    7 ar
  13    6    9 1
  14    7   20 1
  15    9   10 1
  16    9   14 1
  17   10   11 1
  18   10   21 1
  19   10   22 1
  20   11   12 1
  21   11   23 1
  22   11   24 1
  23   12   13 1
  24   12   15 1
  25   13   14 1
  26   13   25 1
  27   13   26 1
  28   14   27 1
  29   14   28 1
  30   15   29 1
  31   15   30 1
  32   15   31 1
  33   16   32 1
  34   16   33 1

#	End of record

