#	Name: ASD01208863
#	Creating user name:	WinNT
#	Creation time:	15. 06. 2019 19:10

#	Modifying user name:	WinNT
#	Modification time:	15. 06. 2019 19:10

#	Program:	/corina/corina34_cracker 3.40 0067  02.08.2006

@<TRIPOS>MOLECULE
ASD01208863
  51   54    0    0    0
SMALL
NO_CHARGES


@<TRIPOS>ATOM
   1 C1            -0.5130     1.4602     1.4817 C.2     
   2 C2            -0.3531     0.1494     0.8187 C.ar    
   3 C3             0.8830    -0.2188     0.2849 C.ar    
   4 C4             1.0285    -1.4485    -0.3352 C.ar    
   5 C5            -0.0520    -2.3141    -0.4264 C.ar    
   6 C6            -1.2826    -1.9523     0.1028 C.ar    
   7 C7            -1.4358    -0.7263     0.7296 C.ar    
   8 O8             0.4320     2.2191     1.5628 O.2     
   9 O9            -1.7082     1.8159     1.9913 O.3     
  10 O10           -2.3375    -2.8039     0.0108 O.3     
  11 C11           -3.1555    -2.6915    -1.0676 C.ar    
  12 C12           -4.3055    -3.4666    -1.1487 C.ar    
  13 C13           -5.1380    -3.3553    -2.2413 C.ar    
  14 C14           -4.8243    -2.4621    -3.2676 C.ar    
  15 C15           -3.6676    -1.6847    -3.1825 C.ar    
  16 C16           -2.8430    -1.7976    -2.0840 C.ar    
  17 O17           -5.5352    -1.5236    -5.4988 O.3     
  18 C18           -5.7140    -2.3401    -4.4411 C.2     
  19 N19           -6.8259    -3.0067    -4.6480 N.2     
  20 N20           -7.3356    -2.6430    -5.7720 N.2     
  21 C21           -6.5761    -1.7380    -6.3226 C.2     
  22 C22           -6.8203    -1.0555    -7.6438 C.3     
  23 O23            2.2315    -1.8078    -0.8557 O.3     
  24 C24            2.3108    -3.0902    -1.4812 C.3     
  25 C25            3.7100    -3.3128    -1.9949 C.ar    
  26 C26            4.6579    -3.9070    -1.1829 C.ar    
  27 C27            5.9414    -4.1112    -1.6541 C.ar    
  28 C28            6.2767    -3.7217    -2.9373 C.ar    
  29 C29            5.3285    -3.1284    -3.7496 C.ar    
  30 C30            4.0439    -2.9281    -3.2799 C.ar    
  31 C31           -1.7920     3.1180     2.6284 C.3     
  32 H32            1.7245     0.4544     0.3550 H       
  33 H33            0.0650    -3.2722    -0.9110 H       
  34 H34           -2.3928    -0.4472     1.1452 H       
  35 H35           -4.5472    -4.1575    -0.3546 H       
  36 H36           -6.0317    -3.9585    -2.3037 H       
  37 H37           -3.4214    -0.9930    -3.9745 H       
  38 H38           -1.9504    -1.1934    -2.0154 H       
  39 H39           -6.3480    -1.6287    -8.4416 H       
  40 H40           -7.8928    -0.9926    -7.8275 H       
  41 H41           -6.3966    -0.0515    -7.6179 H       
  42 H42            2.0627    -3.8645    -0.7552 H       
  43 H43            1.6074    -3.1329    -2.3127 H       
  44 H44            4.3960    -4.2113    -0.1803 H       
  45 H45            6.6822    -4.5747    -1.0195 H       
  46 H46            7.2796    -3.8806    -3.3052 H       
  47 H47            5.5905    -2.8238    -4.7520 H       
  48 H48            3.3020    -2.4679    -3.9158 H       
  49 H49           -1.0933     3.1592     3.4640 H       
  50 H50           -1.5395     3.8933     1.9050 H       
  51 H51           -2.8060     3.2788     2.9944 H       
@<TRIPOS>BOND
   1    1    2 1
   2    1    8 2
   3    1    9 1
   4    2    3 ar
   5    2    7 ar
   6    3    4 ar
   7    3   32 1
   8    4    5 ar
   9    4   23 1
  10    5    6 ar
  11    5   33 1
  12    6    7 ar
  13    6   10 1
  14    7   34 1
  15    9   31 1
  16   10   11 1
  17   11   12 ar
  18   11   16 ar
  19   12   13 ar
  20   12   35 1
  21   13   14 ar
  22   13   36 1
  23   14   15 ar
  24   14   18 1
  25   15   16 ar
  26   15   37 1
  27   16   38 1
  28   17   18 1
  29   17   21 1
  30   18   19 2
  31   19   20 1
  32   20   21 2
  33   21   22 1
  34   22   39 1
  35   22   40 1
  36   22   41 1
  37   23   24 1
  38   24   25 1
  39   24   42 1
  40   24   43 1
  41   25   26 ar
  42   25   30 ar
  43   26   27 ar
  44   26   44 1
  45   27   28 ar
  46   27   45 1
  47   28   29 ar
  48   28   46 1
  49   29   30 ar
  50   29   47 1
  51   30   48 1
  52   31   49 1
  53   31   50 1
  54   31   51 1

#	End of record

