#	Name: ASD01912711
#	Creating user name:	WinNT
#	Creation time:	15. 06. 2019 20:00

#	Modifying user name:	WinNT
#	Modification time:	15. 06. 2019 20:00

#	Program:	/corina/corina34_cracker 3.40 0067  02.08.2006

@<TRIPOS>MOLECULE
ASD01912711
  41   44    0    0    0
SMALL
NO_CHARGES


@<TRIPOS>ATOM
   1 C1            -0.0190     1.3589     0.1459 C.2     
   2 N2             0.0023    -0.0034    -0.0080 N.pl3   
   3 C3            -1.1995    -0.6831    -0.1400 C.2     
   4 C4            -2.3603    -0.0412    -0.1200 C.2     
   5 N5            -2.4359     1.3308     0.0325 N.am    
   6 C6            -1.3048     2.0579     0.1720 C.2     
   7 C7             1.2969     1.7688     0.2524 C.2     
   8 C8             2.0520     0.6012     0.1542 C.2     
   9 N9             1.2242    -0.4052     0.0021 N.2     
  10 O10           -1.3541     3.2672     0.3072 O.2     
  11 C11           -3.6794     1.9642     0.0472 C.ar    
  12 C12            3.5552     0.5109     0.2120 C.3     
  13 O13            4.1047     1.8186     0.3852 O.3     
  14 C14            5.4584     1.9145     0.4574 C.ar    
  15 C15            6.0592     3.1536     0.6252 C.ar    
  16 C16            7.4355     3.2484     0.6982 C.ar    
  17 C17            8.2140     2.1096     0.6042 C.ar    
  18 C18            7.6176     0.8735     0.4366 C.ar    
  19 C19            6.2415     0.7727     0.3691 C.ar    
  20 C20           -4.2573     2.3778    -1.1498 C.ar    
  21 C21           -5.4927     3.0050    -1.1195 C.ar    
  22 C22           -5.4776     2.7556     1.2574 C.ar    
  23 N23           -4.3014     2.1616     1.1987 N.ar    
  24 C24           -6.1074     3.1966     0.1099 C.ar    
  25 C25           -7.4511     3.8740     0.1917 C.3     
  26 F26           -3.6226     2.1710    -2.3244 F       
  27 H27           -1.1901    -1.7562    -0.2619 H       
  28 H28           -3.2738    -0.6075    -0.2264 H       
  29 H29            1.6615     2.7770     0.3831 H       
  30 H30            3.8492    -0.1207     1.0503 H       
  31 H31            3.9293     0.0797    -0.7165 H       
  32 H32            5.4516     4.0434     0.6983 H       
  33 H33            7.9037     4.2128     0.8284 H       
  34 H34            9.2898     2.1858     0.6616 H       
  35 H35            8.2279    -0.0145     0.3627 H       
  36 H36            5.7761    -0.1930     0.2382 H       
  37 H37           -5.9661     3.3373    -2.0316 H       
  38 H38           -5.9546     2.8991     2.2156 H       
  39 H39           -8.2403     3.1255     0.1209 H       
  40 H40           -7.5349     4.4016     1.1418 H       
  41 H41           -7.5501     4.5850    -0.6286 H       
@<TRIPOS>BOND
   1    1    2 1
   2    1    7 2
   3    1    6 1
   4    2    3 1
   5    2    9 1
   6    3    4 2
   7    3   27 1
   8    4    5 1
   9    4   28 1
  10    5    6 am
  11    5   11 1
  12    6   10 2
  13    7    8 1
  14    7   29 1
  15    8    9 2
  16    8   12 1
  17   11   20 ar
  18   11   23 ar
  19   12   13 1
  20   12   30 1
  21   12   31 1
  22   13   14 1
  23   14   15 ar
  24   14   19 ar
  25   15   16 ar
  26   15   32 1
  27   16   17 ar
  28   16   33 1
  29   17   18 ar
  30   17   34 1
  31   18   19 ar
  32   18   35 1
  33   19   36 1
  34   20   21 ar
  35   20   26 1
  36   21   24 ar
  37   21   37 1
  38   22   23 ar
  39   22   24 ar
  40   22   38 1
  41   24   25 1
  42   25   39 1
  43   25   40 1
  44   25   41 1

#	End of record

