#	Name: ASD09116343
#	Creating user name:	WinNT
#	Creation time:	15. 06. 2019 21:21

#	Modifying user name:	WinNT
#	Modification time:	15. 06. 2019 21:21

#	Program:	/corina/corina34_cracker 3.40 0067  02.08.2006

@<TRIPOS>MOLECULE
ASD09116343
  86   92    0    0    0
SMALL
NO_CHARGES


@<TRIPOS>ATOM
   1 N1             0.3112     1.1823    -0.3316 N.2     
   2 N2             0.2982    -0.1773     0.0190 N.pl3   
   3 C3             1.5689     1.5490    -0.3959 C.2     
   4 N4             2.3448     0.4981    -0.1059 N.2     
   5 C5             1.5927    -0.5516     0.1469 C.2     
   6 N6             2.0446    -1.8136     0.4834 N.pl3   
   7 C7            -0.8276    -0.9837     0.2004 C.ar    
   8 N8             2.0241     2.8282    -0.7154 N.pl3   
   9 C9             3.3905     3.1245    -0.6387 C.ar    
  10 C10            3.9364     4.1020    -1.4610 C.ar    
  11 C11            4.1984     2.4453     0.2632 C.ar    
  12 C12            5.5468     2.7370     0.3397 C.ar    
  13 C13            6.0945     3.7094    -0.4846 C.ar    
  14 C14            5.2851     4.3942    -1.3849 C.ar    
  15 N15            7.4620     4.0056    -0.4061 N.3     
  16 C16            7.8092     5.1264    -1.2891 C.3     
  17 C17            8.2753     2.8206    -0.7074 C.3     
  18 C18            9.7530     3.1409    -0.4710 C.3     
  19 C19           10.1671     4.3093    -1.3699 C.3     
  20 C20            9.2730     5.5156    -1.0700 C.3     
  21 N21           11.5690     4.6594    -1.1053 N.3     
  22 F22            5.8178     5.3411    -2.1878 F       
  23 N23           -0.7488    -2.2968     0.0438 N.ar    
  24 N24           -1.7583    -3.0540     0.2077 N.ar    
  25 C25           -2.9890    -2.6135     0.5511 C.ar    
  26 C26           -3.1574    -1.2571     0.7212 C.ar    
  27 C27           -2.0490    -0.4237     0.5539 C.ar    
  28 C28           -3.9606    -3.7182     0.7046 C.ar    
  29 C29           -5.2971    -3.6703     1.0312 C.ar    
  30 C30           -6.0830    -2.4283     1.2957 C.3     
  31 C31           -5.3236    -1.3401     1.9850 C.3     
  32 C32           -4.4341    -0.5674     1.0617 C.3     
  33 C33           -3.3754    -4.9911     0.4694 C.ar    
  34 C34           -4.1066    -6.1546     0.5699 C.ar    
  35 C35           -5.4534    -6.0879     0.9097 C.ar    
  36 C36           -6.0301    -4.8537     1.1342 C.ar    
  37 C37           12.4612     3.5211    -1.3922 C.3     
  38 C38           13.4987     4.0032    -2.4278 C.3     
  39 C39           13.4867     5.5435    -2.2436 C.3     
  40 C40           11.9929     5.8097    -1.9316 C.3     
  41 O41           -6.1928    -7.2234     1.0195 O.3     
  42 C42           -7.5691    -7.0699     1.3723 C.3     
  43 O43           -3.5160    -7.3587     0.3383 O.3     
  44 C44           -3.4563    -7.8016    -1.0191 C.3     
  45 O45           -2.0597    -5.0631     0.1360 O.3     
  46 C46           -1.1363    -5.3317     1.1930 C.3     
  47 H47            2.9969    -1.9858     0.5505 H       
  48 H48            1.4096    -2.5270     0.6526 H       
  49 H49            1.3942     3.5125    -0.9908 H       
  50 H50            3.3072     4.6332    -2.1598 H       
  51 H51            3.7726     1.6887     0.9057 H       
  52 H52            6.1745     2.2081     1.0416 H       
  53 H53            7.6640     4.8291    -2.3276 H       
  54 H54            7.1690     5.9790    -1.0626 H       
  55 H55            7.9736     1.9985    -0.0584 H       
  56 H56            8.1279     2.5341    -1.7487 H       
  57 H57            9.9036     3.4142     0.5734 H       
  58 H58           10.3577     2.2660    -0.7097 H       
  59 H59           10.0534     4.0225    -2.4154 H       
  60 H60            9.5348     6.3372    -1.7367 H       
  61 H61            9.4160     5.8262    -0.0351 H       
  62 H62           -2.1423     0.6437     0.6892 H       
  63 H63           -6.4490    -2.0432     0.3440 H       
  64 H64           -6.9440    -2.6901     1.9106 H       
  65 H65           -6.0347    -0.6527     2.4432 H       
  66 H66           -4.7122    -1.7832     2.7711 H       
  67 H67           -4.1974     0.3888     1.5284 H       
  68 H68           -4.9793    -0.3725     0.1382 H       
  69 H69           -7.0764    -4.8025     1.3972 H       
  70 H70           12.9669     3.2071    -0.4791 H       
  71 H71           11.8845     2.6924    -1.8031 H       
  72 H72           14.4847     3.5959    -2.2039 H       
  73 H73           13.1894     3.7333    -3.4376 H       
  74 H74           14.1194     5.8418    -1.4076 H       
  75 H75           13.7901     6.0488    -3.1606 H       
  76 H76           11.4136     5.8482    -2.8541 H       
  77 H77           11.8816     6.7394    -1.3735 H       
  78 H78           -7.6428    -6.5775     2.3420 H       
  79 H79           -8.0721    -6.4646     0.6182 H       
  80 H80           -8.0420    -8.0505     1.4259 H       
  81 H81           -2.8861    -8.7289    -1.0740 H       
  82 H82           -4.4667    -7.9738    -1.3898 H       
  83 H83           -2.9705    -7.0398    -1.6288 H       
  84 H84           -1.3144    -6.3329     1.5853 H       
  85 H85           -0.1176    -5.2671     0.8108 H       
  86 H86           -1.2727    -4.5999     1.9893 H       
@<TRIPOS>BOND
   1    1    2 1
   2    1    3 2
   3    2    7 1
   4    2    5 1
   5    3    4 1
   6    3    8 1
   7    4    5 2
   8    5    6 1
   9    6   47 1
  10    6   48 1
  11    7   23 ar
  12    7   27 ar
  13    8    9 1
  14    8   49 1
  15    9   10 ar
  16    9   11 ar
  17   10   14 ar
  18   10   50 1
  19   11   12 ar
  20   11   51 1
  21   12   13 ar
  22   12   52 1
  23   13   14 ar
  24   13   15 1
  25   14   22 1
  26   15   17 1
  27   15   16 1
  28   16   20 1
  29   16   53 1
  30   16   54 1
  31   17   18 1
  32   17   55 1
  33   17   56 1
  34   18   19 1
  35   18   57 1
  36   18   58 1
  37   19   20 1
  38   19   21 1
  39   19   59 1
  40   20   60 1
  41   20   61 1
  42   21   37 1
  43   21   40 1
  44   23   24 ar
  45   24   25 ar
  46   25   26 ar
  47   25   28 1
  48   26   27 ar
  49   26   32 1
  50   27   62 1
  51   28   29 ar
  52   28   33 ar
  53   29   30 1
  54   29   36 ar
  55   30   31 1
  56   30   63 1
  57   30   64 1
  58   31   32 1
  59   31   65 1
  60   31   66 1
  61   32   67 1
  62   32   68 1
  63   33   34 ar
  64   33   45 1
  65   34   35 ar
  66   34   43 1
  67   35   36 ar
  68   35   41 1
  69   36   69 1
  70   37   38 1
  71   37   70 1
  72   37   71 1
  73   38   39 1
  74   38   72 1
  75   38   73 1
  76   39   40 1
  77   39   74 1
  78   39   75 1
  79   40   76 1
  80   40   77 1
  81   41   42 1
  82   42   78 1
  83   42   79 1
  84   42   80 1
  85   43   44 1
  86   44   81 1
  87   44   82 1
  88   44   83 1
  89   45   46 1
  90   46   84 1
  91   46   85 1
  92   46   86 1

#	End of record

