#	Name: ASD01900871
#	Creating user name:	WinNT
#	Creation time:	15. 06. 2019 19:52

#	Modifying user name:	WinNT
#	Modification time:	15. 06. 2019 19:52

#	Program:	/corina/corina34_cracker 3.40 0067  02.08.2006

@<TRIPOS>MOLECULE
ASD01900871
  64   69    0    0    0
SMALL
NO_CHARGES


@<TRIPOS>ATOM
   1 C1             0.1873     0.8224    -0.4013 C.ar    
   2 C2             0.3651    -0.5310    -0.4322 C.ar    
   3 C3             1.6519    -1.0768    -0.5087 C.ar    
   4 C4             2.7690    -0.2400    -0.5457 C.ar    
   5 C5             2.5933     1.1290    -0.5084 C.ar    
   6 C6             1.2944     1.6704    -0.4468 C.ar    
   7 N7             3.6737     2.0053    -0.5234 N.pl3   
   8 C8             3.4901     3.3440    -1.0961 C.3     
   9 N9             2.2180     3.9150    -0.6527 N.am    
  10 C10            1.1445     3.1339    -0.4211 C.2     
  11 C11            2.1141     5.2989    -0.4655 C.ar    
  12 C12            1.4646     6.0810    -1.4114 C.ar    
  13 C13            1.3621     7.4455    -1.2259 C.ar    
  14 C14            1.9082     8.0351    -0.0951 C.ar    
  15 C15            2.5575     7.2544     0.8501 C.ar    
  16 C16            2.6554     5.8890     0.6690 C.ar    
  17 O17            1.8072     9.3788     0.0867 O.3     
  18 O18            0.0598     3.6350    -0.1926 O.2     
  19 C19            2.3922     9.9187     1.2735 C.3     
  20 C20            4.6401     4.2487    -0.6438 C.3     
  21 C21            3.5006     3.2462    -2.6242 C.3     
  22 C22            3.3803     4.6505    -3.2207 C.3     
  23 N23            4.5010     5.4786    -2.7576 N.3     
  24 C24            4.4860     5.6243    -1.2965 C.3     
  25 C25            4.4936     6.7910    -3.4176 C.3     
  26 C26            5.6024     7.6425    -2.8548 C.ar    
  27 C27            6.8892     7.5104    -3.3417 C.ar    
  28 C28            7.9082     8.2901    -2.8267 C.ar    
  29 C29            7.6402     9.2042    -1.8231 C.ar    
  30 C30            6.3488     9.3371    -1.3349 C.ar    
  31 C31            5.3303     8.5589    -1.8561 C.ar    
  32 F32            6.0848    10.2287    -0.3548 F       
  33 F33            8.6354     9.9662    -1.3190 F       
  34 C34            1.8284    -2.5422    -0.5501 C.2     
  35 C35            0.8406    -3.4648    -0.5211 C.2     
  36 N36            1.2627    -4.7076    -0.5698 N.2     
  37 C37            2.5387    -4.8979    -0.6379 C.2     
  38 S38            3.3637    -3.4007    -0.6537 S.3     
  39 H39           -0.8088     1.2360    -0.3462 H       
  40 H40           -0.4934    -1.1852    -0.3969 H       
  41 H41            3.7623    -0.6600    -0.6025 H       
  42 H42            4.5326     1.7365    -0.1616 H       
  43 H43            1.0401     5.6223    -2.2922 H       
  44 H44            0.8571     8.0539    -1.9615 H       
  45 H45            2.9830     7.7142     1.7299 H       
  46 H46            3.1571     5.2808     1.4071 H       
  47 H47            1.9216     9.4687     2.1476 H       
  48 H48            3.4602     9.7012     1.2835 H       
  49 H49            2.2410    10.9979     1.2945 H       
  50 H50            4.6144     4.3554     0.4407 H       
  51 H51            5.5903     3.8074    -0.9445 H       
  52 H52            4.4340     2.7897    -2.9534 H       
  53 H53            2.6599     2.6368    -2.9557 H       
  54 H54            3.4017     4.5859    -4.3086 H       
  55 H55            2.4401     5.1009    -2.9024 H       
  56 H56            3.5411     6.0699    -0.9857 H       
  57 H57            5.3098     6.2674    -0.9872 H       
  58 H58            4.6445     6.6597    -4.4891 H       
  59 H59            3.5354     7.2802    -3.2428 H       
  60 H60            7.0990     6.7970    -4.1250 H       
  61 H61            8.9134     8.1854    -3.2074 H       
  62 H62            4.3234     8.6646    -1.4799 H       
  63 H63           -0.2054    -3.2025    -0.4625 H       
  64 H64            3.0162    -5.8655    -0.6833 H       
@<TRIPOS>BOND
   1    1    2 ar
   2    1    6 ar
   3    1   39 1
   4    2    3 ar
   5    2   40 1
   6    3    4 ar
   7    3   34 1
   8    4    5 ar
   9    4   41 1
  10    5    7 1
  11    5    6 ar
  12    6   10 1
  13    7    8 1
  14    7   42 1
  15    8    9 1
  16    8   21 1
  17    8   20 1
  18    9   10 am
  19    9   11 1
  20   10   18 2
  21   11   12 ar
  22   11   16 ar
  23   12   13 ar
  24   12   43 1
  25   13   14 ar
  26   13   44 1
  27   14   15 ar
  28   14   17 1
  29   15   16 ar
  30   15   45 1
  31   16   46 1
  32   17   19 1
  33   19   47 1
  34   19   48 1
  35   19   49 1
  36   20   24 1
  37   20   50 1
  38   20   51 1
  39   21   22 1
  40   21   52 1
  41   21   53 1
  42   22   23 1
  43   22   54 1
  44   22   55 1
  45   23   24 1
  46   23   25 1
  47   24   56 1
  48   24   57 1
  49   25   26 1
  50   25   58 1
  51   25   59 1
  52   26   27 ar
  53   26   31 ar
  54   27   28 ar
  55   27   60 1
  56   28   29 ar
  57   28   61 1
  58   29   30 ar
  59   29   33 1
  60   30   31 ar
  61   30   32 1
  62   31   62 1
  63   34   35 2
  64   34   38 1
  65   35   36 1
  66   35   63 1
  67   36   37 2
  68   37   38 1
  69   37   64 1

#	End of record

