#	Name: ASD08170082
#	Creating user name:	WinNT
#	Creation time:	15. 06. 2019 21:17

#	Modifying user name:	WinNT
#	Modification time:	15. 06. 2019 21:17

#	Program:	/corina/corina34_cracker 3.40 0067  02.08.2006

@<TRIPOS>MOLECULE
ASD08170082
  68   71    0    0    0
SMALL
NO_CHARGES


@<TRIPOS>ATOM
   1 N1            -0.1650     1.0828     0.5490 N.2     
   2 N2            -0.1226    -0.1781     0.5029 N.2     
   3 C3             0.9631     1.7258     0.5166 C.2     
   4 S4             2.2404     0.5887     0.4149 S.3     
   5 C5             1.0533    -0.7160     0.4270 C.2     
   6 C6             1.3532    -2.1913     0.3609 C.3     
   7 C7             1.3848    -2.6403    -1.1014 C.3     
   8 C8             1.7209    -4.5872    -2.6308 C.3     
   9 C9             2.0209    -6.0626    -2.6969 C.2     
  10 N10            1.1492    -7.0206    -2.6884 N.2     
  11 S11            3.6219    -6.7948    -2.8073 S.3     
  12 C12            2.8911    -8.3442    -2.8208 C.2     
  13 N13            1.6024    -8.1972    -2.7514 N.2     
  14 N14            3.5656    -9.5580    -2.8980 N.am    
  15 C15            2.8736   -10.7145    -2.9002 C.2     
  16 O16            1.6626   -10.6967    -2.8348 O.2     
  17 C17            3.6044   -12.0297    -2.9839 C.3     
  18 N18            1.1098     3.1082     0.5573 N.am    
  19 C19            0.0215     3.8992     0.6379 C.2     
  20 C20            0.1804     5.3971     0.6820 C.3     
  21 O21           -1.0857     3.4055     0.6749 O.2     
  22 C22            1.6894    -4.1382    -1.1685 C.3     
  23 C23            4.1462   -12.4009    -1.6020 C.3     
  24 C24            0.4138     5.9272    -0.7342 C.3     
  25 C25            0.5779     7.4568    -0.7041 C.3     
  26 C26            4.9058   -13.7495    -1.6619 C.3     
  27 C27            1.9863     7.7599    -1.2557 C.3     
  28 C28            2.3289     6.5229    -2.1227 C.3     
  29 C29            1.7282     5.3540    -1.3030 C.3     
  30 N30           -1.0375     6.0026     1.2370 N.3     
  31 N31            2.6806   -13.0748    -3.4446 N.3     
  32 C32            5.2151   -11.3845    -1.1502 C.3     
  33 C33            6.3001   -12.1869    -0.4109 C.3     
  34 C34            5.8528   -13.6630    -0.4392 C.3     
  35 H35            2.3216    -2.3862     0.8218 H       
  36 H36            0.5794    -2.7437     0.8940 H       
  37 H37            0.4165    -2.4455    -1.5623 H       
  38 H38            2.1587    -2.0880    -1.6345 H       
  39 H39            2.4948    -4.0349    -3.1638 H       
  40 H40            0.7526    -4.3924    -3.0917 H       
  41 H41            4.5341    -9.5722    -2.9503 H       
  42 H42            4.4326   -11.9411    -3.6870 H       
  43 H43            1.9953     3.5030     0.5278 H       
  44 H44            1.0329     5.6537     1.3110 H       
  45 H45            2.6577    -4.3331    -0.7076 H       
  46 H46            0.9155    -4.6906    -0.6354 H       
  47 H47            3.3350   -12.4497    -0.8757 H       
  48 H48           -0.4228     5.6540    -1.3773 H       
  49 H49           -0.1785     7.9260    -1.3333 H       
  50 H50            0.4913     7.8216     0.3195 H       
  51 H51            4.2155   -14.5866    -1.5574 H       
  52 H52            5.4761   -13.8309    -2.5872 H       
  53 H53            1.9705     8.6619    -1.8674 H       
  54 H54            2.7014     7.8637    -0.4397 H       
  55 H55            1.8534     6.5932    -3.1010 H       
  56 H56            3.4082     6.4091    -2.2239 H       
  57 H57            2.4016     5.0693    -0.4946 H       
  58 H58            1.5240     4.5003    -1.9493 H       
  59 H59           -1.8425     5.7792     0.6712 H       
  60 H60           -1.1785     5.7183     2.1948 H       
  61 H61            3.1677   -13.9444    -3.6018 H       
  62 H62            1.9207   -13.1989    -2.7924 H       
  63 H63            5.6461   -10.8853    -2.0181 H       
  64 H64            4.7713   -10.6497    -0.4785 H       
  65 H65            7.2577   -12.0771    -0.9200 H       
  66 H66            6.3829   -11.8415     0.6196 H       
  67 H67            5.3182   -13.9172     0.4760 H       
  68 H68            6.7122   -14.3195    -0.5751 H       
@<TRIPOS>BOND
   1    1    2 1
   2    1    3 2
   3    2    5 2
   4    3    4 1
   5    3   18 1
   6    4    5 1
   7    5    6 1
   8    6    7 1
   9    6   35 1
  10    6   36 1
  11    7   22 1
  12    7   37 1
  13    7   38 1
  14    8    9 1
  15    8   22 1
  16    8   39 1
  17    8   40 1
  18    9   10 2
  19    9   11 1
  20   10   13 1
  21   11   12 1
  22   12   13 2
  23   12   14 1
  24   14   15 am
  25   14   41 1
  26   15   16 2
  27   15   17 1
  28   17   23 1
  29   17   31 1
  30   17   42 1
  31   18   19 am
  32   18   43 1
  33   19   20 1
  34   19   21 2
  35   20   24 1
  36   20   30 1
  37   20   44 1
  38   22   45 1
  39   22   46 1
  40   23   32 1
  41   23   26 1
  42   23   47 1
  43   24   25 1
  44   24   29 1
  45   24   48 1
  46   25   27 1
  47   25   49 1
  48   25   50 1
  49   26   34 1
  50   26   51 1
  51   26   52 1
  52   27   28 1
  53   27   53 1
  54   27   54 1
  55   28   29 1
  56   28   55 1
  57   28   56 1
  58   29   57 1
  59   29   58 1
  60   30   59 1
  61   30   60 1
  62   31   61 1
  63   31   62 1
  64   32   33 1
  65   32   63 1
  66   32   64 1
  67   33   34 1
  68   33   65 1
  69   33   66 1
  70   34   67 1
  71   34   68 1

#	End of record

