#	Name: ASD08150327
#	Creating user name:	WinNT
#	Creation time:	15. 06. 2019 21:15

#	Modifying user name:	WinNT
#	Modification time:	15. 06. 2019 21:15

#	Program:	/corina/corina34_cracker 3.40 0067  02.08.2006

@<TRIPOS>MOLECULE
ASD08150327
  69   73    0    0    0
SMALL
NO_CHARGES


@<TRIPOS>ATOM
   1 N1             0.5491     0.1860     1.2485 N.am    
   2 C2             1.4970     1.2577     0.9078 C.3     
   3 C3             2.6232     0.6595     0.0580 C.3     
   4 N4             2.0425    -0.0453    -1.0927 N.3     
   5 C5             1.2122    -1.1775    -0.6605 C.3     
   6 C6             0.0282    -0.6545     0.1597 C.3     
   7 C7             0.1721    -0.0239     2.5254 C.2     
   8 O8             0.6164     0.6769     3.4131 O.2     
   9 O9            -0.6967    -1.0101     2.8173 O.3     
  10 C10            3.0401    -0.4648    -1.9791 C.ar    
  11 C11            3.1068     0.0769    -3.2565 C.ar    
  12 C12            4.0916    -0.3369    -4.1309 C.ar    
  13 C13            5.0151    -1.2948    -3.7338 C.ar    
  14 C14            4.9486    -1.8363    -2.4572 C.ar    
  15 C15            3.9672    -1.4186    -1.5803 C.ar    
  16 C16            2.1040     1.1158    -3.6879 C.3     
  17 F17            2.3470     1.4745    -5.0181 F       
  18 F18            0.8118     0.5918    -3.5748 F       
  19 F19            2.2223     2.2455    -2.8712 F       
  20 N20            5.2861    -4.9323    -7.1432 N.ar    
  21 C21            6.4450    -4.3119    -7.1769 C.ar    
  22 C22            6.7103    -3.2376    -6.3462 C.ar    
  23 C23            5.7505    -2.7901    -5.4538 C.ar    
  24 C24            4.5100    -3.4647    -5.4265 C.ar    
  25 C25            3.4835    -3.0786    -4.5546 C.ar    
  26 C26            2.3013    -3.7586    -4.5613 C.ar    
  27 C27            2.1023    -4.8334    -5.4256 C.ar    
  28 C28            3.0794    -5.2338    -6.2845 C.ar    
  29 C29            4.3108    -4.5565    -6.3073 C.ar    
  30 C30            7.1833    -1.0590    -4.6291 C.2     
  31 N31            6.0151    -1.7158    -4.6228 N.am    
  32 C32            8.0376    -2.5172    -6.3767 C.3     
  33 N33            8.2017    -1.3871    -5.4456 N.am    
  34 O34            7.3291    -0.1251    -3.8644 O.2     
  35 C35            9.4564    -0.6318    -5.4082 C.3     
  36 Cl36           1.0301    -3.2800    -3.4803 Cl      
  37 C37           -1.0580    -1.1784     4.2135 C.3     
  38 C38           -1.7062     0.1071     4.7312 C.3     
  39 C39           -2.0468    -2.3382     4.3482 C.3     
  40 C40            0.1984    -1.4817     5.0324 C.3     
  41 H41            0.9835     2.0342     0.3408 H       
  42 H42            1.9136     1.6823     1.8212 H       
  43 H43            3.2754     1.4580    -0.2958 H       
  44 H44            3.2003    -0.0419     0.6607 H       
  45 H45            0.8411    -1.7112    -1.5355 H       
  46 H46            1.8090    -1.8532    -0.0479 H       
  47 H47           -0.5264    -1.4942     0.5786 H       
  48 H48           -0.6265    -0.0618    -0.4791 H       
  49 H49            4.1435     0.0842    -5.1241 H       
  50 H50            5.6668    -2.5816    -2.1487 H       
  51 H51            3.9183    -1.8366    -0.5856 H       
  52 H52            7.2052    -4.6479    -7.8666 H       
  53 H53            3.6278    -2.2472    -3.8806 H       
  54 H54            1.1579    -5.3572    -5.4136 H       
  55 H55            2.9086    -6.0690    -6.9476 H       
  56 H56            8.8206    -3.2451    -6.1642 H       
  57 H57            8.1951    -2.1445    -7.3888 H       
  58 H58            9.3831     0.1578    -4.6603 H       
  59 H59           10.2764    -1.3019    -5.1498 H       
  60 H60            9.6434    -0.1893    -6.3866 H       
  61 H61           -2.6012     0.3232     4.1479 H       
  62 H62           -1.9773    -0.0193     5.7794 H       
  63 H63           -1.0017     0.9334     4.6353 H       
  64 H64           -1.5850    -3.2541     3.9794 H       
  65 H65           -2.3179    -2.4646     5.3964 H       
  66 H66           -2.9418    -2.1222     3.7649 H       
  67 H67            0.9028    -0.6555     4.9364 H       
  68 H68           -0.0728    -1.6081     6.0805 H       
  69 H69            0.6602    -2.3976     4.6636 H       
@<TRIPOS>BOND
   1    1    2 1
   2    1    6 1
   3    1    7 am
   4    2    3 1
   5    2   41 1
   6    2   42 1
   7    3    4 1
   8    3   43 1
   9    3   44 1
  10    4    5 1
  11    4   10 1
  12    5    6 1
  13    5   45 1
  14    5   46 1
  15    6   47 1
  16    6   48 1
  17    7    8 2
  18    7    9 1
  19    9   37 1
  20   10   11 ar
  21   10   15 ar
  22   11   12 ar
  23   11   16 1
  24   12   13 ar
  25   12   49 1
  26   13   14 ar
  27   13   31 1
  28   14   15 ar
  29   14   50 1
  30   15   51 1
  31   16   17 1
  32   16   18 1
  33   16   19 1
  34   20   21 ar
  35   20   29 ar
  36   21   22 ar
  37   21   52 1
  38   22   23 ar
  39   22   32 1
  40   23   24 ar
  41   23   31 1
  42   24   25 ar
  43   24   29 ar
  44   25   26 ar
  45   25   53 1
  46   26   27 ar
  47   26   36 1
  48   27   28 ar
  49   27   54 1
  50   28   29 ar
  51   28   55 1
  52   30   31 am
  53   30   33 am
  54   30   34 2
  55   32   33 1
  56   32   56 1
  57   32   57 1
  58   33   35 1
  59   35   58 1
  60   35   59 1
  61   35   60 1
  62   37   38 1
  63   37   40 1
  64   37   39 1
  65   38   61 1
  66   38   62 1
  67   38   63 1
  68   39   64 1
  69   39   65 1
  70   39   66 1
  71   40   67 1
  72   40   68 1
  73   40   69 1

#	End of record

