#	Name: ASD01150556
#	Creating user name:	WinNT
#	Creation time:	15. 06. 2019 19:04

#	Modifying user name:	WinNT
#	Modification time:	15. 06. 2019 19:04

#	Program:	/corina/corina34_cracker 3.40 0067  02.08.2006

@<TRIPOS>MOLECULE
ASD01150556
  44   46    0    0    0
SMALL
NO_CHARGES


@<TRIPOS>ATOM
   1 C1             2.0455     1.4038    -0.8411 C.ar    
   2 C2             2.0585     0.0229    -0.8454 C.ar    
   3 C3             0.3431    -0.0046     0.8288 C.ar    
   4 C4             0.3254     1.3763     0.8383 C.ar    
   5 C5             1.1777     2.0861     0.0020 C.ar    
   6 N6             1.1623     3.4852     0.0092 N.am    
   7 C7            -0.0113     4.1355    -0.0781 C.2     
   8 N8            -0.0630     5.4805    -0.0744 N.am    
   9 C9             1.0745     6.2002     0.0182 C.2     
  10 C10            2.3615     5.4949     0.1145 C.2     
  11 N11            2.3686     4.1879     0.1129 N.2     
  12 O12            1.0361     7.4166     0.0217 O.2     
  13 C13           -1.3553     6.1636    -0.1717 C.3     
  14 O14           -1.0435     3.4978    -0.1621 O.2     
  15 C15           -1.9178     6.3932     1.2325 C.3     
  16 O16            3.5243     6.1909     0.2090 O.3     
  17 C17            4.7305     5.4299     0.2986 C.3     
  18 C18            1.2084    -0.6807    -0.0119 C.ar    
  19 C19           -3.2674     7.1066     1.1309 C.3     
  20 C20           -3.8214     7.3328     2.5140 C.ar    
  21 C21           -3.5195     8.4956     3.1979 C.ar    
  22 C22           -4.0276     8.7030     4.4667 C.ar    
  23 C23           -4.8381     7.7479     5.0513 C.ar    
  24 C24           -5.1408     6.5855     4.3670 C.ar    
  25 C25           -4.6362     6.3800     3.0966 C.ar    
  26 H26            2.7126     1.9527    -1.4894 H       
  27 H27            2.7330    -0.5082    -1.5007 H       
  28 H28           -0.3192    -0.5570     1.4787 H       
  29 H29           -0.3505     1.9037     1.4951 H       
  30 H30           -1.2224     7.1233    -0.6713 H       
  31 H31           -2.0491     5.5487    -0.7449 H       
  32 H32           -2.0507     5.4336     1.7321 H       
  33 H33           -1.2240     7.0082     1.8057 H       
  34 H34            5.5824     6.1063     0.3688 H       
  35 H35            4.6955     4.7965     1.1850 H       
  36 H36            4.8337     4.8066    -0.5896 H       
  37 H37            1.2200    -1.7606    -0.0177 H       
  38 H38           -3.1345     8.0663     0.6314 H       
  39 H39           -3.9612     6.4917     0.5577 H       
  40 H40           -2.8863     9.2418     2.7412 H       
  41 H41           -3.7912     9.6111     5.0012 H       
  42 H42           -5.2345     7.9096     6.0428 H       
  43 H43           -5.7737     5.8391     4.8239 H       
  44 H44           -4.8726     5.4719     2.5620 H       
@<TRIPOS>BOND
   1    1    2 ar
   2    1    5 ar
   3    1   26 1
   4    2   18 ar
   5    2   27 1
   6    3    4 ar
   7    3   18 ar
   8    3   28 1
   9    4    5 ar
  10    4   29 1
  11    5    6 1
  12    6    7 am
  13    6   11 1
  14    7    8 am
  15    7   14 2
  16    8    9 am
  17    8   13 1
  18    9   10 1
  19    9   12 2
  20   10   11 2
  21   10   16 1
  22   13   15 1
  23   13   30 1
  24   13   31 1
  25   15   19 1
  26   15   32 1
  27   15   33 1
  28   16   17 1
  29   17   34 1
  30   17   35 1
  31   17   36 1
  32   18   37 1
  33   19   20 1
  34   19   38 1
  35   19   39 1
  36   20   21 ar
  37   20   25 ar
  38   21   22 ar
  39   21   40 1
  40   22   23 ar
  41   22   41 1
  42   23   24 ar
  43   23   42 1
  44   24   25 ar
  45   24   43 1
  46   25   44 1

#	End of record

