#	Name: ASD01882010
#	Creating user name:	WinNT
#	Creation time:	15. 06. 2019 19:43

#	Modifying user name:	WinNT
#	Modification time:	15. 06. 2019 19:43

#	Program:	/corina/corina34_cracker 3.40 0067  02.08.2006

@<TRIPOS>MOLECULE
ASD01882010
  56   60    0    0    0
SMALL
NO_CHARGES


@<TRIPOS>ATOM
   1 N1            -0.0070     1.3976     0.2774 N.pl3   
   2 N2            -0.0051     0.1099     0.2440 N.2     
   3 N3             1.1897    -0.3642     0.1893 N.2     
   4 C4             2.0724     0.6550     0.1844 C.ar    
   5 C5             1.2972     1.8287     0.2423 C.ar    
   6 C6             3.4658     0.7507     0.1378 C.ar    
   7 C7             4.0619     1.9963     0.1494 C.ar    
   8 C8             3.2838     3.1502     0.2069 C.ar    
   9 C9             1.9200     3.0700     0.2520 C.ar    
  10 O10            5.4173     2.0970     0.1047 O.3     
  11 C11            5.9708     3.4143     0.1196 C.3     
  12 C12            7.4973     3.3268     0.0641 C.3     
  13 C13            8.0899     4.7373     0.0800 C.3     
  14 N14            9.5556     4.6532     0.0267 N.3     
  15 C15           10.1510     5.9772    -0.1981 C.3     
  16 C16           11.6745     5.8774    -0.0669 C.3     
  17 N17           12.1528     4.8191    -0.9693 N.am    
  18 C18           11.5079     3.4992    -0.8973 C.3     
  19 C19            9.9909     3.6926    -0.9958 C.3     
  20 C20           13.1558     5.0524    -1.8387 C.2     
  21 O21           13.6096     4.1408    -2.5015 O.2     
  22 O22           13.9113     8.4798    -1.7444 O.3     
  23 N23           13.2476     7.5180    -1.4343 N.2     
  24 C24           13.7057     6.4221    -1.9865 C.2     
  25 C25           14.8375     6.8106    -2.7560 C.2     
  26 C26           14.9205     8.1471    -2.5610 C.2     
  27 C27           -1.1941     2.2541     0.3363 C.3     
  28 C28           -1.5625     2.5154     1.7981 C.3     
  29 C29           -2.7102     3.4888     2.0743 C.3     
  30 C30           -2.9110     1.9877     2.2921 C.3     
  31 Br31           4.5265    -0.8128     0.0603 Br      
  32 H32            3.7630     4.1180     0.2156 H       
  33 H33            1.3270     3.9716     0.2962 H       
  34 H34            5.6072     3.9710    -0.7442 H       
  35 H35            5.6692     3.9249     1.0341 H       
  36 H36            7.8609     2.7701     0.9278 H       
  37 H37            7.7989     2.8163    -0.8505 H       
  38 H38            7.7263     5.2939    -0.7837 H       
  39 H39            7.7883     5.2478     0.9945 H       
  40 H40            9.8941     6.3265    -1.1982 H       
  41 H41            9.7673     6.6790     0.5424 H       
  42 H42           12.1289     6.8284    -0.3446 H       
  43 H43           11.9379     5.6288     0.9612 H       
  44 H44           11.8522     2.8778    -1.7240 H       
  45 H45           11.7553     3.0219     0.0509 H       
  46 H46            9.4912     2.7375    -0.8339 H       
  47 H47            9.7363     4.0736    -1.9848 H       
  48 H48           15.4809     6.1844    -3.3562 H       
  49 H49           15.6566     8.8158    -2.9822 H       
  50 H50           -0.9837     3.2013    -0.1603 H       
  51 H51           -2.0253     1.7580    -0.1647 H       
  52 H52           -0.7299     2.5065     2.5016 H       
  53 H53           -2.6329     4.1198     2.9597 H       
  54 H54           -3.2028     3.9429     1.2146 H       
  55 H55           -3.5357     1.4543     1.5756 H       
  56 H56           -2.9657     1.6313     3.3207 H       
@<TRIPOS>BOND
   1    1    2 1
   2    1    5 1
   3    1   27 1
   4    2    3 2
   5    3    4 1
   6    4    5 ar
   7    4    6 ar
   8    5    9 ar
   9    6    7 ar
  10    6   31 1
  11    7    8 ar
  12    7   10 1
  13    8    9 ar
  14    8   32 1
  15    9   33 1
  16   10   11 1
  17   11   12 1
  18   11   34 1
  19   11   35 1
  20   12   13 1
  21   12   36 1
  22   12   37 1
  23   13   14 1
  24   13   38 1
  25   13   39 1
  26   14   15 1
  27   14   19 1
  28   15   16 1
  29   15   40 1
  30   15   41 1
  31   16   17 1
  32   16   42 1
  33   16   43 1
  34   17   18 1
  35   17   20 am
  36   18   19 1
  37   18   44 1
  38   18   45 1
  39   19   46 1
  40   19   47 1
  41   20   21 2
  42   20   24 1
  43   22   23 1
  44   22   26 1
  45   23   24 2
  46   24   25 1
  47   25   26 2
  48   25   48 1
  49   26   49 1
  50   27   28 1
  51   27   50 1
  52   27   51 1
  53   28   29 1
  54   28   30 1
  55   28   52 1
  56   29   30 1
  57   29   53 1
  58   29   54 1
  59   30   55 1
  60   30   56 1

#	End of record

