#	Name: ASD05380114
#	Creating user name:	WinNT
#	Creation time:	15. 06. 2019 20:59

#	Modifying user name:	WinNT
#	Modification time:	15. 06. 2019 20:59

#	Program:	/corina/corina34_cracker 3.40 0067  02.08.2006

@<TRIPOS>MOLECULE
ASD05380114
  51   55    0    0    0
SMALL
NO_CHARGES


@<TRIPOS>ATOM
   1 C1            -0.2686     1.7421    -0.3092 C.ar    
   2 C2            -0.0030     0.3787    -0.5682 C.ar    
   3 C3             0.6336     2.7197    -0.7228 C.ar    
   4 C4             1.7832     2.3463    -1.3846 C.ar    
   5 C5             2.0473     1.0075    -1.6408 C.ar    
   6 C6             1.1688     0.0257    -1.2399 C.ar    
   7 N7            -0.8959    -0.5557    -0.1561 N.2     
   8 C8            -1.9854    -0.2271     0.4689 C.2     
   9 N9            -2.3218     1.0587     0.7598 N.am    
  10 C10           -1.5078     2.0804     0.4058 C.2     
  11 C11           -3.5181     1.3270     1.4373 C.ar    
  12 C12           -4.6871     1.5528     0.7204 C.ar    
  13 C13           -5.8980     1.8602     2.7637 C.ar    
  14 C14           -2.9256    -1.3258     0.8933 C.3     
  15 N15           -2.9266    -2.3855    -0.1182 N.pl3   
  16 C16           -4.0254    -3.2167    -0.2486 C.ar    
  17 N17           -5.0879    -3.0672     0.5359 N.ar    
  18 O18           -1.7961     3.2356     0.6595 O.2     
  19 C19           -4.0461    -4.2344    -1.2170 C.ar    
  20 C20           -5.1898    -5.0466    -1.3016 C.ar    
  21 N21           -6.2022    -4.8250    -0.4698 N.ar    
  22 C22           -6.1407    -3.8556     0.4187 C.ar    
  23 N23           -3.1788    -4.6664    -2.1638 N.2     
  24 C24           -3.7044    -5.6675    -2.8083 C.2     
  25 N25           -4.9449    -5.9403    -2.3134 N.pl3   
  26 C26           -5.8699     1.8179     1.3842 C.ar    
  27 C27           -4.7307     1.6286     3.4926 C.ar    
  28 C28           -3.5372     1.3616     2.8227 C.ar    
  29 C29            0.3541     4.1750    -0.4491 C.3     
  30 C30           -2.4653    -1.9012     2.2342 C.3     
  31 C31           -4.7570     1.6718     4.9237 C.1     
  32 C32           -4.7786     1.7072     6.0970 C.1     
  33 H33            2.4846     3.1016    -1.7070 H       
  34 H34            2.9532     0.7326    -2.1606 H       
  35 H35            1.3852    -1.0124    -1.4445 H       
  36 H36           -4.6711     1.5214    -0.3590 H       
  37 H37           -6.8241     2.0680     3.2789 H       
  38 H38           -3.9327    -0.9221     0.9977 H       
  39 H39           -2.1571    -2.5046    -0.6967 H       
  40 H40           -6.9827    -3.6995     1.0768 H       
  41 H41           -3.2280    -6.2031    -3.6161 H       
  42 H42           -5.5443    -6.6387    -2.6199 H       
  43 H43           -6.7752     1.9930     0.8218 H       
  44 H44           -2.6307     1.1819     3.3816 H       
  45 H45            0.6743     4.4224     0.5631 H       
  46 H46            0.9006     4.7906    -1.1636 H       
  47 H47           -0.7146     4.3648    -0.5487 H       
  48 H48           -2.4952    -1.1204     2.9942 H       
  49 H49           -3.1265    -2.7173     2.5256 H       
  50 H50           -1.4462    -2.2759     2.1382 H       
  51 H51           -4.7979     1.7389     7.1463 H       
@<TRIPOS>BOND
   1    1    2 ar
   2    1    3 ar
   3    1   10 1
   4    2    7 1
   5    2    6 ar
   6    3    4 ar
   7    3   29 1
   8    4    5 ar
   9    4   33 1
  10    5    6 ar
  11    5   34 1
  12    6   35 1
  13    7    8 2
  14    8    9 1
  15    8   14 1
  16    9   10 am
  17    9   11 1
  18   10   18 2
  19   11   12 ar
  20   11   28 ar
  21   12   26 ar
  22   12   36 1
  23   13   26 ar
  24   13   27 ar
  25   13   37 1
  26   14   15 1
  27   14   30 1
  28   14   38 1
  29   15   16 1
  30   15   39 1
  31   16   17 ar
  32   16   19 ar
  33   17   22 ar
  34   19   20 ar
  35   19   23 1
  36   20   21 ar
  37   20   25 1
  38   21   22 ar
  39   22   40 1
  40   23   24 2
  41   24   25 1
  42   24   41 1
  43   25   42 1
  44   26   43 1
  45   27   31 1
  46   27   28 ar
  47   28   44 1
  48   29   45 1
  49   29   46 1
  50   29   47 1
  51   30   48 1
  52   30   49 1
  53   30   50 1
  54   31   32 3
  55   32   51 1

#	End of record

