#	Name: ASD03430166
#	Creating user name:	WinNT
#	Creation time:	15. 06. 2019 20:40

#	Modifying user name:	WinNT
#	Modification time:	15. 06. 2019 20:40

#	Program:	/corina/corina34_cracker 3.40 0067  02.08.2006

@<TRIPOS>MOLECULE
ASD03430166
  55   60    0    0    0
SMALL
NO_CHARGES


@<TRIPOS>ATOM
   1 C1            -1.3114     1.3342     1.9729 C.ar    
   2 C2            -1.0156     0.0280     1.6208 C.ar    
   3 C3             0.2825    -0.4328     1.6929 C.ar    
   4 C4             1.3076     0.4010     2.1295 C.ar    
   5 C5             1.0083     1.7145     2.4783 C.ar    
   6 C6            -0.2917     2.1811     2.4011 C.ar    
   7 O7             2.5025    -0.2562     2.1531 O.3     
   8 C8             0.9175    -1.7574     1.3642 C.3     
   9 C9             2.4162    -1.4289     1.3209 C.3     
  10 C10           -0.0034    -3.8480     1.6824 C.ar    
  11 C11            0.6044    -2.8106     2.3850 C.ar    
  12 C12            0.4298    -2.3127     0.0567 C.2     
  13 N13           -0.0908    -3.5266     0.3258 N.am    
  14 O14            0.4918    -1.7743    -1.0283 O.2     
  15 C15            0.7995    -2.9055     3.7449 C.ar    
  16 C16            0.3905    -4.0380     4.4264 C.ar    
  17 C17           -0.2147    -5.0741     3.7387 C.ar    
  18 C18           -0.4121    -4.9841     2.3766 C.ar    
  19 C19           -0.6793    -4.4066    -0.6868 C.3     
  20 C20           -2.1525    -4.1144    -0.8114 C.2     
  21 C21           -2.7000    -3.2186    -1.6470 C.2     
  22 C22           -4.1504    -3.2846    -1.4162 C.2     
  23 C23           -4.3257    -4.2302    -0.4488 C.2     
  24 O24           -3.1267    -4.7127    -0.1084 O.3     
  25 C25           -5.1964    -2.4938    -2.0890 C.2     
  26 N26           -5.0150    -1.1745    -2.2966 N.am    
  27 O27           -6.2233    -3.0316    -2.4567 O.2     
  28 C28           -5.9999    -0.4121    -3.0679 C.3     
  29 C29           -3.8328    -0.5029    -1.7511 C.3     
  30 O30           -2.4888     2.0260     1.9850 O.3     
  31 C31           -2.2481     3.1794     2.8126 C.3     
  32 O32           -0.8310     3.4041     2.6810 O.3     
  33 C33           -5.6471    -4.6609     0.1338 C.3     
  34 F34           -6.1622    -5.7248    -0.6146 F       
  35 F35           -5.4615    -5.0698     1.4588 F       
  36 F36           -6.5444    -3.5882     0.0982 F       
  37 H37           -1.8036    -0.6320     1.2892 H       
  38 H38            1.7960     2.3739     2.8116 H       
  39 H39            2.7342    -1.2052     0.3026 H       
  40 H40            3.0037    -2.2455     1.7405 H       
  41 H41            1.2725    -2.0954     4.2799 H       
  42 H42            0.5438    -4.1129     5.4928 H       
  43 H43           -0.5339    -5.9581     4.2708 H       
  44 H44           -0.8856    -5.7973     1.8466 H       
  45 H45           -0.1921    -4.2333    -1.6463 H       
  46 H46           -0.5389    -5.4462    -0.3906 H       
  47 H47           -2.1811    -2.5794    -2.3459 H       
  48 H48           -6.7605    -0.0160    -2.3952 H       
  49 H49           -5.5022     0.4119    -3.5791 H       
  50 H50           -6.4698    -1.0651    -3.8034 H       
  51 H51           -3.2704    -1.2026    -1.1327 H       
  52 H52           -3.2031    -0.1540    -2.5695 H       
  53 H53           -4.1453     0.3475    -1.1451 H       
  54 H54           -2.8065     4.0393     2.4428 H       
  55 H55           -2.5104     2.9683     3.8493 H       
@<TRIPOS>BOND
   1    1    2 ar
   2    1    6 ar
   3    1   30 1
   4    2    3 ar
   5    2   37 1
   6    3    4 ar
   7    3    8 1
   8    4    5 ar
   9    4    7 1
  10    5    6 ar
  11    5   38 1
  12    6   32 1
  13    7    9 1
  14    8    9 1
  15    8   11 1
  16    8   12 1
  17    9   39 1
  18    9   40 1
  19   10   11 ar
  20   10   13 1
  21   10   18 ar
  22   11   15 ar
  23   12   13 am
  24   12   14 2
  25   13   19 1
  26   15   16 ar
  27   15   41 1
  28   16   17 ar
  29   16   42 1
  30   17   18 ar
  31   17   43 1
  32   18   44 1
  33   19   20 1
  34   19   45 1
  35   19   46 1
  36   20   21 2
  37   20   24 1
  38   21   22 1
  39   21   47 1
  40   22   23 2
  41   22   25 1
  42   23   24 1
  43   23   33 1
  44   25   26 am
  45   25   27 2
  46   26   28 1
  47   26   29 1
  48   28   48 1
  49   28   49 1
  50   28   50 1
  51   29   51 1
  52   29   52 1
  53   29   53 1
  54   30   31 1
  55   31   32 1
  56   31   54 1
  57   31   55 1
  58   33   34 1
  59   33   35 1
  60   33   36 1

#	End of record

