#	Name: ASD00100125
#	Creating user name:	WinNT
#	Creation time:	15. 06. 2019 18:30

#	Modifying user name:	WinNT
#	Modification time:	15. 06. 2019 18:30

#	Program:	/corina/corina34_cracker 3.40 0067  02.08.2006

@<TRIPOS>MOLECULE
ASD00100125
  46   48    0    0    0
SMALL
NO_CHARGES


@<TRIPOS>ATOM
   1 C1             0.0123     1.3144    -0.1459 C.2     
   2 N2             0.0315     0.0150    -0.3174 N.2     
   3 C3             1.2738    -0.4523    -0.0367 C.2     
   4 C4             2.0456     0.6038     0.3208 C.2     
   5 N5             1.2483     1.7215     0.2520 N.pl3   
   6 N6            -1.0832     2.1376    -0.3429 N.pl3   
   7 C7             1.7104    -1.8681    -0.1076 C.ar    
   8 C8             0.8067    -2.8633    -0.4931 C.ar    
   9 C9             1.2227    -4.1827    -0.5565 C.ar    
  10 C10            2.5273    -4.5137    -0.2396 C.ar    
  11 C11            3.4235    -3.5317     0.1421 C.ar    
  12 C12            3.0235    -2.2115     0.2040 C.ar    
  13 O13           -0.4752    -2.5370    -0.8039 O.3     
  14 C14           -1.3417    -3.6060    -1.1891 C.3     
  15 C15            1.6545     3.0970     0.5509 C.3     
  16 C16            1.3717     3.4007     1.9996 C.ar    
  17 C17            2.2947     3.0551     2.9745 C.ar    
  18 C18            2.0320     3.3358     4.3079 C.ar    
  19 C19            0.8514     3.9592     4.6642 C.ar    
  20 C20           -0.0702     4.3046     3.6944 C.ar    
  21 C21            0.1905     4.0312     2.3591 C.ar    
  22 O22           -0.7138     4.3762     1.4051 O.3     
  23 C23           -1.9088     5.0229     1.8476 C.3     
  24 O24            3.4558     2.4416     2.6248 O.3     
  25 C25            4.3605     2.1144     3.6814 C.3     
  26 H26            3.0868     0.5726     0.6057 H       
  27 H27           -1.9535     1.7510    -0.5271 H       
  28 H28           -0.9804     3.1010    -0.2967 H       
  29 H29            0.5274    -4.9539    -0.8535 H       
  30 H30            2.8479    -5.5438    -0.2899 H       
  31 H31            4.4408    -3.7978     0.3885 H       
  32 H32            3.7272    -1.4467     0.4977 H       
  33 H33           -0.9411    -4.0967    -2.0762 H       
  34 H34           -1.4123    -4.3277    -0.3753 H       
  35 H35           -2.3326    -3.2091    -1.4098 H       
  36 H36            2.7211     3.2111     0.3573 H       
  37 H37            1.0947     3.7866    -0.0809 H       
  38 H38            2.7506     3.0665     5.0678 H       
  39 H39            0.6485     4.1765     5.7025 H       
  40 H40           -0.9922     4.7918     3.9754 H       
  41 H41           -2.5423     5.2431     0.9884 H       
  42 H42           -2.4437     4.3673     2.5348 H       
  43 H43           -1.6520     5.9516     2.3572 H       
  44 H44            4.6559     3.0253     4.2019 H       
  45 H45            3.8713     1.4378     4.3821 H       
  46 H46            5.2445     1.6304     3.2660 H       
@<TRIPOS>BOND
   1    1    2 2
   2    1    5 1
   3    1    6 1
   4    2    3 1
   5    3    4 2
   6    3    7 1
   7    4    5 1
   8    4   26 1
   9    5   15 1
  10    6   27 1
  11    6   28 1
  12    7    8 ar
  13    7   12 ar
  14    8    9 ar
  15    8   13 1
  16    9   10 ar
  17    9   29 1
  18   10   11 ar
  19   10   30 1
  20   11   12 ar
  21   11   31 1
  22   12   32 1
  23   13   14 1
  24   14   33 1
  25   14   34 1
  26   14   35 1
  27   15   16 1
  28   15   36 1
  29   15   37 1
  30   16   17 ar
  31   16   21 ar
  32   17   18 ar
  33   17   24 1
  34   18   19 ar
  35   18   38 1
  36   19   20 ar
  37   19   39 1
  38   20   21 ar
  39   20   40 1
  40   21   22 1
  41   22   23 1
  42   23   41 1
  43   23   42 1
  44   23   43 1
  45   24   25 1
  46   25   44 1
  47   25   45 1
  48   25   46 1

#	End of record

