#	Name: ASD01816679
#	Creating user name:	WinNT
#	Creation time:	15. 06. 2019 19:35

#	Modifying user name:	WinNT
#	Modification time:	15. 06. 2019 19:35

#	Program:	/corina/corina34_cracker 3.40 0067  02.08.2006

@<TRIPOS>MOLECULE
ASD01816679
  68   72    0    0    0
SMALL
NO_CHARGES


@<TRIPOS>ATOM
   1 C1            -0.0167     1.3960     0.0157 C.2     
   2 C2             0.0025    -0.0052    -0.0025 C.2     
   3 C3             1.1989    -0.6602    -0.0248 C.2     
   4 C4             2.3921     0.0815    -0.0292 C.2     
   5 N5             2.3439     1.4491    -0.0107 N.am    
   6 C6             1.1421     2.0927     0.0111 C.2     
   7 C7             3.6230    -0.5886    -0.0521 C.2     
   8 C8             4.7879     0.1231    -0.0565 C.2     
   9 C9             4.7340     1.5284    -0.0380 C.2     
  10 C10            3.4813     2.1731    -0.0149 C.2     
  11 C11            3.6604    -2.0950    -0.0712 C.3     
  12 O12            3.4256     3.3913     0.0013 O.2     
  13 C13            5.9710     2.3159    -0.0418 C.2     
  14 N14            7.1647     1.6963     0.0459 N.am    
  15 O15            5.9198     3.5292    -0.1241 O.2     
  16 N16            3.7770    -2.5644    -1.4583 N.3     
  17 C17            4.0537    -4.0058    -1.5047 C.3     
  18 C18            4.3123    -4.4306    -2.9520 C.3     
  19 C19            3.0831    -4.1003    -3.8031 C.3     
  20 C20            2.7877    -2.6015    -3.6990 C.3     
  21 C21            2.5732    -2.2297    -2.2300 C.3     
  22 C22            3.3543    -4.4614    -5.2409 C.ar    
  23 C23            8.4025     2.4710    -0.0711 C.3     
  24 C24            8.7701     3.0545     1.2947 C.3     
  25 C25            9.5310     1.5590    -0.5565 C.3     
  26 C26           10.8238     2.3681    -0.6787 C.3     
  27 C27           11.1914     2.9516     0.6871 C.3     
  28 C28           10.0629     3.8636     1.1725 C.3     
  29 O29            9.1878     1.0141    -1.8321 O.3     
  30 C30            2.3826    -4.2513    -6.2014 C.ar    
  31 C31            1.9251    -4.8652    -3.3125 C.1     
  32 N32            1.0314    -5.4556    -2.9339 N.1     
  33 C33            2.6313    -4.5826    -7.5202 C.ar    
  34 C34            3.8519    -5.1235    -7.8786 C.ar    
  35 C35            4.8239    -5.3328    -6.9182 C.ar    
  36 C36            4.5768    -4.9975    -5.6001 C.ar    
  37 H37           -0.9603     1.9212     0.0290 H       
  38 H38           -0.9228    -0.5622     0.0015 H       
  39 H39            1.2286    -1.7397    -0.0387 H       
  40 H40            1.1154     3.1723     0.0255 H       
  41 H41            5.7397    -0.3869    -0.0737 H       
  42 H42            4.5179    -2.4445     0.5038 H       
  43 H43            2.7436    -2.4869     0.3691 H       
  44 H44            7.2041     0.7373     0.1865 H       
  45 H45            4.9325    -4.2265    -0.8988 H       
  46 H46            3.1962    -4.5530    -1.1133 H       
  47 H47            5.1782    -3.8939    -3.3396 H       
  48 H48            4.5023    -5.5033    -2.9880 H       
  49 H49            3.6296    -2.0360    -4.0983 H       
  50 H50            1.8883    -2.3674    -4.2686 H       
  51 H51            1.7226    -2.7853    -1.8352 H       
  52 H52            2.3768    -1.1605    -2.1510 H       
  53 H53            8.2577     3.2815    -0.7854 H       
  54 H54            7.9661     3.7042     1.6405 H       
  55 H55            8.9149     2.2439     2.0090 H       
  56 H56            9.6758     0.7485     0.1578 H       
  57 H57           11.6278     1.7184    -1.0245 H       
  58 H58           10.6790     3.1786    -1.3930 H       
  59 H59           11.3362     2.1410     1.4014 H       
  60 H60           12.1124     3.5280     0.6000 H       
  61 H61            9.9181     4.6741     0.4582 H       
  62 H62           10.3247     4.2792     2.1455 H       
  63 H63            9.8594     0.4247    -2.2017 H       
  64 H64            1.4290    -3.8287    -5.9214 H       
  65 H65            1.8719    -4.4192    -8.2705 H       
  66 H66            4.0460    -5.3830    -8.9088 H       
  67 H67            5.7774    -5.7557    -7.1982 H       
  68 H68            5.3362    -5.1609    -4.8498 H       
@<TRIPOS>BOND
   1    1    2 1
   2    1    6 2
   3    1   37 1
   4    2    3 2
   5    2   38 1
   6    3    4 1
   7    3   39 1
   8    4    5 1
   9    4    7 2
  10    5    6 1
  11    5   10 am
  12    6   40 1
  13    7    8 1
  14    7   11 1
  15    8    9 2
  16    8   41 1
  17    9   10 1
  18    9   13 1
  19   10   12 2
  20   11   16 1
  21   11   42 1
  22   11   43 1
  23   13   14 am
  24   13   15 2
  25   14   23 1
  26   14   44 1
  27   16   17 1
  28   16   21 1
  29   17   18 1
  30   17   45 1
  31   17   46 1
  32   18   19 1
  33   18   47 1
  34   18   48 1
  35   19   20 1
  36   19   22 1
  37   19   31 1
  38   20   21 1
  39   20   49 1
  40   20   50 1
  41   21   51 1
  42   21   52 1
  43   22   30 ar
  44   22   36 ar
  45   23   24 1
  46   23   25 1
  47   23   53 1
  48   24   28 1
  49   24   54 1
  50   24   55 1
  51   25   26 1
  52   25   29 1
  53   25   56 1
  54   26   27 1
  55   26   57 1
  56   26   58 1
  57   27   28 1
  58   27   59 1
  59   27   60 1
  60   28   61 1
  61   28   62 1
  62   29   63 1
  63   30   33 ar
  64   30   64 1
  65   31   32 3
  66   33   34 ar
  67   33   65 1
  68   34   35 ar
  69   34   66 1
  70   35   36 ar
  71   35   67 1
  72   36   68 1

#	End of record

