#	Name: ASD01911255
#	Creating user name:	WinNT
#	Creation time:	15. 06. 2019 19:57

#	Modifying user name:	WinNT
#	Modification time:	15. 06. 2019 19:57

#	Program:	/corina/corina34_cracker 3.40 0067  02.08.2006

@<TRIPOS>MOLECULE
ASD01911255
  35   37    0    0    0
SMALL
NO_CHARGES


@<TRIPOS>ATOM
   1 N1            -0.0169     1.3963     0.0097 N.2     
   2 N2             0.0021    -0.0041     0.0020 N.pl3   
   3 C3             1.2261     1.8306     0.0002 C.2     
   4 C4             2.0834     0.7183    -0.0140 C.2     
   5 C5             1.3066    -0.4066    -0.0126 C.2     
   6 C6             1.7890    -1.7990    -0.0247 C.2     
   7 C7             1.6492     3.2535     0.0033 C.ar    
   8 C8             0.6934     4.2670     0.0180 C.ar    
   9 C9            -1.1707    -0.8820     0.0085 C.3     
  10 C10           -1.5861    -1.1758    -1.4100 C.2     
  11 O11           -2.6448    -1.9654    -1.6494 O.3     
  12 O12           -0.9660    -0.7007    -2.3318 O.2     
  13 C13           -2.9874    -2.2051    -3.0399 C.3     
  14 C14            3.0827    -2.1765     0.0565 C.2     
  15 C15            1.0922     5.5883     0.0213 C.ar    
  16 C16            2.4381     5.9071     0.0097 C.ar    
  17 C17            3.3913     4.9048    -0.0048 C.ar    
  18 C18            3.0035     3.5801    -0.0025 C.ar    
  19 C19            3.2873    -3.5405     0.0252 C.2     
  20 C20            2.1769    -4.2776    -0.0804 C.2     
  21 S21            0.7682    -3.2266    -0.1396 S.3     
  22 Cl22           4.8702    -4.2477     0.1157 Cl      
  23 H23            3.1630     0.7466    -0.0247 H       
  24 H24           -0.3578     4.0192     0.0263 H       
  25 H25           -0.9236    -1.8147     0.5154 H       
  26 H26           -1.9901    -0.3898     0.5324 H       
  27 H27           -3.2132    -1.2566    -3.5272 H       
  28 H28           -2.1467    -2.6816    -3.5443 H       
  29 H29           -3.8593    -2.8571    -3.0922 H       
  30 H30            3.8929    -1.4672     0.1391 H       
  31 H31            0.3521     6.3748     0.0327 H       
  32 H32            2.7459     6.9423     0.0117 H       
  33 H33            4.4409     5.1591    -0.0138 H       
  34 H34            3.7485     2.7983    -0.0135 H       
  35 H35            2.1489    -5.3565    -0.1196 H       
@<TRIPOS>BOND
   1    1    2 1
   2    1    3 2
   3    2    9 1
   4    2    5 1
   5    3    4 1
   6    3    7 1
   7    4    5 2
   8    4   23 1
   9    5    6 1
  10    6   14 2
  11    6   21 1
  12    7    8 ar
  13    7   18 ar
  14    8   15 ar
  15    8   24 1
  16    9   10 1
  17    9   25 1
  18    9   26 1
  19   10   11 1
  20   10   12 2
  21   11   13 1
  22   13   27 1
  23   13   28 1
  24   13   29 1
  25   14   19 1
  26   14   30 1
  27   15   16 ar
  28   15   31 1
  29   16   17 ar
  30   16   32 1
  31   17   18 ar
  32   17   33 1
  33   18   34 1
  34   19   20 2
  35   19   22 1
  36   20   21 1
  37   20   35 1

#	End of record

