#	Name: ASD02032005
#	Creating user name:	WinNT
#	Creation time:	15. 06. 2019 20:16

#	Modifying user name:	WinNT
#	Modification time:	15. 06. 2019 20:16

#	Program:	/corina/corina34_cracker 3.40 0067  02.08.2006

@<TRIPOS>MOLECULE
ASD02032005
  31   31    0    0    0
SMALL
NO_CHARGES


@<TRIPOS>ATOM
   1 C1            -0.0167     1.3781     0.0096 C.ar    
   2 C2             0.0021    -0.0041     0.0020 C.ar    
   3 C3             1.2084    -0.6789    -0.0132 C.ar    
   4 C4             2.3960     0.0285    -0.0212 C.ar    
   5 C5             2.3773     1.4107    -0.0145 C.ar    
   6 C6             1.1710     2.0855     0.0021 C.ar    
   7 C7             3.6720     2.1819    -0.0228 C.3     
   8 C8             3.7296     3.0684    -1.2685 C.3     
   9 C9             3.7526     3.0567     1.2299 C.3     
  10 O10            3.8172     2.2103     2.4079 O.3     
  11 O11            3.7724     2.2332    -2.4554 O.3     
  12 C12            3.8259     2.8628    -3.6443 C.2     
  13 N13            3.8676     2.1463    -4.7850 N.am    
  14 O14            3.8364     4.0771    -3.6888 O.2     
  15 C15            3.8925     2.8287     3.6015 C.2     
  16 N16            3.9552     2.1014     4.7345 N.am    
  17 O17            3.9040     4.0424     3.6572 O.2     
  18 H18           -0.9592     1.9054     0.0170 H       
  19 H19           -0.9258    -0.5567     0.0083 H       
  20 H20            1.2231    -1.7588    -0.0184 H       
  21 H21            3.3386    -0.4987    -0.0324 H       
  22 H22            1.1563     3.1654     0.0069 H       
  23 H23            4.5100     1.4850    -0.0338 H       
  24 H24            2.8449     3.7041    -1.3032 H       
  25 H25            4.6233     3.6913    -1.2301 H       
  26 H26            4.6454     3.6800     1.1810 H       
  27 H27            2.8687     3.6919     1.2869 H       
  28 H28            3.8592     1.1770    -4.7495 H       
  29 H29            3.9061     2.5999    -5.6416 H       
  30 H30            3.9460     1.1325     4.6900 H       
  31 H31            4.0095     2.5470     5.5944 H       
@<TRIPOS>BOND
   1    1    2 ar
   2    1    6 ar
   3    1   18 1
   4    2    3 ar
   5    2   19 1
   6    3    4 ar
   7    3   20 1
   8    4    5 ar
   9    4   21 1
  10    5    6 ar
  11    5    7 1
  12    6   22 1
  13    7    8 1
  14    7    9 1
  15    7   23 1
  16    8   11 1
  17    8   24 1
  18    8   25 1
  19    9   10 1
  20    9   26 1
  21    9   27 1
  22   10   15 1
  23   11   12 1
  24   12   13 am
  25   12   14 2
  26   13   28 1
  27   13   29 1
  28   15   16 am
  29   15   17 2
  30   16   30 1
  31   16   31 1

#	End of record

