#	Name: ASD01910313
#	Creating user name:	WinNT
#	Creation time:	15. 06. 2019 19:55

#	Modifying user name:	WinNT
#	Modification time:	15. 06. 2019 19:55

#	Program:	/corina/corina34_cracker 3.40 0067  02.08.2006

@<TRIPOS>MOLECULE
ASD01910313
  49   52    0    0    0
SMALL
NO_CHARGES


@<TRIPOS>ATOM
   1 C1             0.2266     0.9295    -0.8017 C.ar    
   2 C2            -0.0020     0.0085     0.2056 C.ar    
   3 C3             0.9552    -0.2133     1.1802 C.ar    
   4 C4             2.1450     0.4836     1.1542 C.ar    
   5 C5             2.3830     1.4154     0.1400 C.ar    
   6 C6             1.4117     1.6337    -0.8410 C.ar    
   7 C7             3.6158     2.1433     0.1065 C.1     
   8 C8             4.6264     2.7400     0.0791 C.1     
   9 C9             5.8592     3.4679     0.0455 C.ar    
  10 C10            6.0943     4.4001    -0.9713 C.ar    
  11 C11            7.2702     5.0939    -1.0026 C.ar    
  12 C12            8.2392     4.8727    -0.0195 C.ar    
  13 C13            8.0050     3.9415     0.9967 C.ar    
  14 C14            6.8270     3.2515     1.0329 C.ar    
  15 C15            9.5105     5.6223    -0.0546 C.2     
  16 N16           10.6835     4.9643     0.0328 N.am    
  17 O17            9.4994     6.8333    -0.1623 O.2     
  18 C18           10.7124     3.5109     0.2463 C.3     
  19 C19           11.5727     2.8690    -0.8466 C.3     
  20 C20           12.9528     3.5302    -0.8581 C.3     
  21 C21           12.8039     5.0203    -1.1736 C.3     
  22 C22           11.9575     5.6858    -0.0899 C.3     
  23 O23           13.5663     3.3738     0.4230 O.3     
  24 C24           13.8132     2.8780    -1.9095 C.2     
  25 C25           15.1408     2.7609    -1.8526 C.2     
  26 C26           15.7169     2.1221    -2.9371 C.2     
  27 C27           14.8573     1.7205    -3.8746 C.2     
  28 S28           13.2199     2.1481    -3.3956 S.3     
  29 H29           -0.5232     1.0940    -1.5614 H       
  30 H30           -0.9321    -0.5397     0.2315 H       
  31 H31            0.7698    -0.9336     1.9632 H       
  32 H32            2.8908     0.3100     1.9158 H       
  33 H33            1.5889     2.3519    -1.6279 H       
  34 H34            5.3461     4.5706    -1.7313 H       
  35 H35            7.4518     5.8134    -1.7874 H       
  36 H36            8.7540     3.7710     1.7559 H       
  37 H37            6.6461     2.5322     1.8179 H       
  38 H38           11.1421     3.2938     1.2242 H       
  39 H39            9.6987     3.1137     0.1940 H       
  40 H40           11.6814     1.8033    -0.6450 H       
  41 H41           11.0939     3.0094    -1.8158 H       
  42 H42           13.7889     5.4858    -1.2046 H       
  43 H43           12.3135     5.1404    -2.1396 H       
  44 H44           11.7662     6.7239    -0.3617 H       
  45 H45           12.4865     5.6467     0.8624 H       
  46 H46           14.4461     3.7697     0.4888 H       
  47 H47           15.7220     3.1363    -1.0234 H       
  48 H48           16.7818     1.9614    -3.0181 H       
  49 H49           15.1255     1.2079    -4.7867 H       
@<TRIPOS>BOND
   1    1    2 ar
   2    1    6 ar
   3    1   29 1
   4    2    3 ar
   5    2   30 1
   6    3    4 ar
   7    3   31 1
   8    4    5 ar
   9    4   32 1
  10    5    6 ar
  11    5    7 1
  12    6   33 1
  13    7    8 3
  14    8    9 1
  15    9   10 ar
  16    9   14 ar
  17   10   11 ar
  18   10   34 1
  19   11   12 ar
  20   11   35 1
  21   12   13 ar
  22   12   15 1
  23   13   14 ar
  24   13   36 1
  25   14   37 1
  26   15   16 am
  27   15   17 2
  28   16   18 1
  29   16   22 1
  30   18   19 1
  31   18   38 1
  32   18   39 1
  33   19   20 1
  34   19   40 1
  35   19   41 1
  36   20   21 1
  37   20   23 1
  38   20   24 1
  39   21   22 1
  40   21   42 1
  41   21   43 1
  42   22   44 1
  43   22   45 1
  44   23   46 1
  45   24   25 2
  46   24   28 1
  47   25   26 1
  48   25   47 1
  49   26   27 2
  50   26   48 1
  51   27   28 1
  52   27   49 1

#	End of record

