#	Name: ASD01148428
#	Creating user name:	WinNT
#	Creation time:	15. 06. 2019 19:02

#	Modifying user name:	WinNT
#	Modification time:	15. 06. 2019 19:02

#	Program:	/corina/corina34_cracker 3.40 0067  02.08.2006

@<TRIPOS>MOLECULE
ASD01148428
  51   54    0    0    0
SMALL
NO_CHARGES


@<TRIPOS>ATOM
   1 C1             0.3635     1.8430     0.0680 C.ar    
   2 C2             0.4620     0.4642    -0.0075 C.ar    
   3 C3            -0.6836    -0.3066    -0.0945 C.ar    
   4 C4            -1.9254     0.3000    -0.1062 C.ar    
   5 C5            -2.0237     1.6771    -0.0308 C.ar    
   6 C6            -0.8805     2.4483     0.0615 C.ar    
   7 C7            -3.3783     2.3372    -0.0441 C.3     
   8 O8            -4.3702     1.4926     0.5742 O.3     
   9 C9            -3.3993     3.5772     0.8813 C.3     
  10 C10           -3.9256     3.0069     2.1846 C.2     
  11 N11           -4.4453     1.8509     1.9399 N.2     
  12 C12           -3.8548     3.6610     3.5060 C.ar    
  13 C13           -4.3814     3.0215     4.6314 C.ar    
  14 C14           -3.2563     4.9171     3.6324 C.ar    
  15 C15           -3.1904     5.5271     4.8648 C.ar    
  16 C16           -3.7215     4.8901     5.9889 C.ar    
  17 C17           -4.3155     3.6315     5.8633 C.ar    
  18 C18           -3.6503     5.5447     7.3115 C.2     
  19 O19           -4.2087     5.0441     8.2682 O.2     
  20 N20           -2.9663     6.6967     7.4573 N.am    
  21 C21           -4.8884     2.9443     7.0760 C.3     
  22 C22           -3.7887     2.7101    -1.4701 C.3     
  23 F23           -3.8277     1.5567    -2.2609 F       
  24 F24           -5.0547     3.3051    -1.4506 F       
  25 F25           -2.8589     3.6096    -2.0028 F       
  26 Cl26           2.0220    -0.2972     0.0066 Cl      
  27 Cl27           1.8000     2.8116     0.1779 Cl      
  28 C28           -2.8993     7.3118     8.7001 C.ar    
  29 N29           -2.2229     8.4433     8.8255 N.ar    
  30 N30           -3.5179     6.7556     9.7305 N.ar    
  31 C31           -3.4742     7.3155    10.9281 C.ar    
  32 C32           -2.7703     8.4977    11.0963 C.ar    
  33 C33           -2.1393     9.0552     9.9952 C.ar    
  34 C34           -0.5774    -1.8076    -0.1772 C.3     
  35 F35           -1.8594    -2.3621    -0.2568 F       
  36 F36            0.1552    -2.1613    -1.3153 F       
  37 F37            0.0705    -2.2928     0.9639 F       
  38 H38           -2.8194    -0.3020    -0.1745 H       
  39 H39           -0.9580     3.5239     0.1203 H       
  40 H40           -2.3947     3.9791     1.0125 H       
  41 H41           -4.0744     4.3393     0.4918 H       
  42 H42           -4.8405     2.0487     4.5343 H       
  43 H43           -2.8451     5.4093     2.7635 H       
  44 H44           -2.7277     6.4981     4.9626 H       
  45 H45           -2.5207     7.0961     6.6938 H       
  46 H46           -5.8956     3.3168     7.2627 H       
  47 H47           -4.9253     1.8691     6.9008 H       
  48 H48           -4.2587     3.1500     7.9416 H       
  49 H49           -3.9811     6.8573    11.7645 H       
  50 H50           -2.7186     8.9763    12.0631 H       
  51 H51           -1.5823     9.9754    10.0922 H       
@<TRIPOS>BOND
   1    1    2 ar
   2    1   27 1
   3    1    6 ar
   4    2    3 ar
   5    2   26 1
   6    3    4 ar
   7    3   34 1
   8    4    5 ar
   9    4   38 1
  10    5    6 ar
  11    5    7 1
  12    6   39 1
  13    7    8 1
  14    7    9 1
  15    7   22 1
  16    8   11 1
  17    9   10 1
  18    9   40 1
  19    9   41 1
  20   10   11 2
  21   10   12 1
  22   12   13 ar
  23   12   14 ar
  24   13   17 ar
  25   13   42 1
  26   14   15 ar
  27   14   43 1
  28   15   16 ar
  29   15   44 1
  30   16   17 ar
  31   16   18 1
  32   17   21 1
  33   18   19 2
  34   18   20 am
  35   20   28 1
  36   20   45 1
  37   21   46 1
  38   21   47 1
  39   21   48 1
  40   22   23 1
  41   22   24 1
  42   22   25 1
  43   28   29 ar
  44   28   30 ar
  45   29   33 ar
  46   30   31 ar
  47   31   32 ar
  48   31   49 1
  49   32   33 ar
  50   32   50 1
  51   33   51 1
  52   34   35 1
  53   34   36 1
  54   34   37 1

#	End of record

