#	Name: ASD04880929
#	Creating user name:	WinNT
#	Creation time:	15. 06. 2019 20:53

#	Modifying user name:	WinNT
#	Modification time:	15. 06. 2019 20:53

#	Program:	/corina/corina34_cracker 3.40 0067  02.08.2006

@<TRIPOS>MOLECULE
ASD04880929
  85   90    0    0    0
SMALL
NO_CHARGES


@<TRIPOS>ATOM
   1 C1             1.0208    -0.3313    -1.2365 C.ar    
   2 C2             0.8502    -1.3105    -2.1983 C.ar    
   3 C3             1.8355    -1.5366    -3.1415 C.ar    
   4 C4             2.9941    -0.7847    -3.1261 C.ar    
   5 C5             3.1686     0.1994    -2.1617 C.ar    
   6 C6             2.1765     0.4240    -1.2154 C.ar    
   7 N7             4.3392     0.9613    -2.1430 N.3     
   8 C8             5.1059     0.7185    -0.9130 C.3     
   9 C9             6.4155     1.5087    -0.9671 C.3     
  10 N10            6.1156     2.9388    -1.1238 N.3     
  11 C11            5.3489     3.1815    -2.3538 C.3     
  12 C12            4.0393     2.3913    -2.2997 C.3     
  13 C13            7.2826     3.6984    -1.1051 C.ar    
  14 C14            7.6940     4.3671    -2.2524 C.ar    
  15 C15            8.8475     5.1194    -2.2384 C.ar    
  16 C16            9.6083     5.2127    -1.0696 C.ar    
  17 C17            9.1967     4.5417     0.0853 C.ar    
  18 C18            8.0356     3.7921     0.0686 C.ar    
  19 N19            7.6170     3.1220     1.2255 N.am    
  20 C20            8.5224     2.7392     2.1475 C.2     
  21 C21            8.0968     1.9574     3.3126 C.2     
  22 O22            9.6935     3.0425     2.0129 O.2     
  23 C23           10.8444     6.0179    -1.0552 C.2     
  24 N24           11.2407     6.6641    -2.1695 N.am    
  25 O25           11.5057     6.0985    -0.0379 O.2     
  26 C26            4.0677    -1.0322    -4.1543 C.3     
  27 O27            6.8369     1.5562     3.5808 O.3     
  28 C28            6.8254     0.8642     4.7276 C.2     
  29 C29            8.0843     0.8103     5.2156 C.2     
  30 C30            8.9071     1.5026     4.3134 C.2     
  31 C31            5.6087     0.2477     5.3683 C.3     
  32 C32           12.4682     7.4637    -2.1552 C.3     
  33 C33           13.0295     7.5651    -3.5762 C.3     
  34 C34           14.2770     8.4514    -3.5647 C.3     
  35 N35           13.9265     9.7856    -3.0612 N.3     
  36 C36           13.4295     9.7187    -1.6810 C.3     
  37 C37           12.1567     8.8702    -1.6363 C.3     
  38 C38           15.0679    10.7044    -3.1658 C.3     
  39 C39           14.6094    12.1103    -2.8755 C.ar    
  40 C40           14.6364    12.5925    -1.5803 C.ar    
  41 C41           14.2157    13.8821    -1.3140 C.ar    
  42 C42           13.7685    14.6896    -2.3430 C.ar    
  43 C43           13.7424    14.2076    -3.6384 C.ar    
  44 C44           14.1671    12.9195    -3.9053 C.ar    
  45 H45            0.2473    -0.1542    -0.5039 H       
  46 H46           -0.0546    -1.9001    -2.2123 H       
  47 H47            1.6993    -2.3023    -3.8909 H       
  48 H48            2.3090     1.1887    -0.4644 H       
  49 H49            4.5220     1.0410    -0.0509 H       
  50 H50            5.3264    -0.3454    -0.8259 H       
  51 H51            6.9726     1.3531    -0.0433 H       
  52 H52            7.0115     1.1673    -1.8135 H       
  53 H53            5.1284     4.2454    -2.4409 H       
  54 H54            5.9328     2.8591    -3.2159 H       
  55 H55            3.4822     2.5470    -3.2235 H       
  56 H56            3.4433     2.7328    -1.4533 H       
  57 H57            7.1080     4.2962    -3.1568 H       
  58 H58            9.1647     5.6374    -3.1314 H       
  59 H59            9.7827     4.6117     0.9898 H       
  60 H60            6.6754     2.9335     1.3629 H       
  61 H61           10.7132     6.5998    -2.9810 H       
  62 H62            3.8405    -0.4693    -5.0596 H       
  63 H63            5.0310    -0.7104    -3.7584 H       
  64 H64            4.1082    -2.0960    -4.3885 H       
  65 H65            8.3990     0.3225     6.1263 H       
  66 H66            9.9740     1.6490     4.3957 H       
  67 H67            4.7319     0.4506     4.7533 H       
  68 H68            5.7502    -0.8296     5.4551 H       
  69 H69            5.4638     0.6762     6.3601 H       
  70 H70           13.2042     6.9896    -1.5058 H       
  71 H71           13.2931     6.5703    -3.9352 H       
  72 H72           12.2783     8.0026    -4.2338 H       
  73 H73           15.0329     8.0062    -2.9177 H       
  74 H74           14.6709     8.5373    -4.5774 H       
  75 H75           14.1893     9.2675    -1.0429 H       
  76 H76           13.2079    10.7250    -1.3256 H       
  77 H77           11.3918     9.3283    -2.2634 H       
  78 H78           11.7968     8.8078    -0.6094 H       
  79 H79           15.8336    10.4160    -2.4457 H       
  80 H80           15.4808    10.6576    -4.1735 H       
  81 H81           14.9858    11.9617    -0.7764 H       
  82 H82           14.2361    14.2586    -0.3020 H       
  83 H83           13.4392    15.6969    -2.1349 H       
  84 H84           13.3927    14.8384    -4.4423 H       
  85 H85           14.1502    12.5442    -4.9178 H       
@<TRIPOS>BOND
   1    1    2 ar
   2    1    6 ar
   3    1   45 1
   4    2    3 ar
   5    2   46 1
   6    3    4 ar
   7    3   47 1
   8    4    5 ar
   9    4   26 1
  10    5    6 ar
  11    5    7 1
  12    6   48 1
  13    7    8 1
  14    7   12 1
  15    8    9 1
  16    8   49 1
  17    8   50 1
  18    9   10 1
  19    9   51 1
  20    9   52 1
  21   10   11 1
  22   10   13 1
  23   11   12 1
  24   11   53 1
  25   11   54 1
  26   12   55 1
  27   12   56 1
  28   13   14 ar
  29   13   18 ar
  30   14   15 ar
  31   14   57 1
  32   15   16 ar
  33   15   58 1
  34   16   17 ar
  35   16   23 1
  36   17   18 ar
  37   17   59 1
  38   18   19 1
  39   19   20 am
  40   19   60 1
  41   20   21 1
  42   20   22 2
  43   21   27 1
  44   21   30 2
  45   23   24 am
  46   23   25 2
  47   24   32 1
  48   24   61 1
  49   26   62 1
  50   26   63 1
  51   26   64 1
  52   27   28 1
  53   28   29 2
  54   28   31 1
  55   29   30 1
  56   29   65 1
  57   30   66 1
  58   31   67 1
  59   31   68 1
  60   31   69 1
  61   32   33 1
  62   32   37 1
  63   32   70 1
  64   33   34 1
  65   33   71 1
  66   33   72 1
  67   34   35 1
  68   34   73 1
  69   34   74 1
  70   35   36 1
  71   35   38 1
  72   36   37 1
  73   36   75 1
  74   36   76 1
  75   37   77 1
  76   37   78 1
  77   38   39 1
  78   38   79 1
  79   38   80 1
  80   39   40 ar
  81   39   44 ar
  82   40   41 ar
  83   40   81 1
  84   41   42 ar
  85   41   82 1
  86   42   43 ar
  87   42   83 1
  88   43   44 ar
  89   43   84 1
  90   44   85 1

#	End of record

