#	Name: ASD01410391
#	Creating user name:	WinNT
#	Creation time:	15. 06. 2019 19:17

#	Modifying user name:	WinNT
#	Modification time:	15. 06. 2019 19:17

#	Program:	/corina/corina34_cracker 3.40 0067  02.08.2006

@<TRIPOS>MOLECULE
ASD01410391
  34   36    0    0    0
SMALL
NO_CHARGES


@<TRIPOS>ATOM
   1 S1             0.0615     1.7566    -0.6227 S.3     
   2 C2             0.1471     0.0035    -0.8677 C.2     
   3 N3             1.4256    -0.3516    -0.6969 N.am    
   4 C4             2.3251     0.5724    -0.4027 C.2     
   5 C5             1.7960     1.9383    -0.2927 C.2     
   6 O6             3.5017     0.3108    -0.2358 O.2     
   7 S7            -1.1576    -1.0373    -1.2492 S.2     
   8 C8             2.4762     3.0763    -0.0057 C.2     
   9 C9             1.8032     4.3791    -0.1035 C.ar    
  10 C10            2.3160     5.4885     0.5785 C.ar    
  11 C11            1.6794     6.7070     0.4820 C.ar    
  12 C12            0.5345     6.8354    -0.2878 C.ar    
  13 C13            0.0209     5.7417    -0.9659 C.ar    
  14 C14            0.6497     4.5180    -0.8838 C.ar    
  15 Cl15          -0.2607     8.3742    -0.4029 Cl      
  16 C16            1.8264    -1.7539    -0.8343 C.3     
  17 C17            2.2063    -2.0298    -2.2663 C.ar    
  18 C18            3.5137    -1.8563    -2.6802 C.ar    
  19 C19            3.8622    -2.1093    -3.9938 C.ar    
  20 C20            2.9034    -2.5363    -4.8933 C.ar    
  21 C21            1.5961    -2.7107    -4.4791 C.ar    
  22 C22            1.2485    -2.4619    -3.1645 C.ar    
  23 H23            3.5123     3.0248     0.2946 H       
  24 H24            3.2081     5.3898     1.1792 H       
  25 H25            2.0737     7.5639     1.0080 H       
  26 H26           -0.8721     5.8493    -1.5638 H       
  27 H27            0.2508     3.6675    -1.4165 H       
  28 H28            2.6805    -1.9528    -0.1870 H       
  29 H29            0.9956    -2.3990    -0.5481 H       
  30 H30            4.2629    -1.5227    -1.9774 H       
  31 H31            4.8836    -1.9731    -4.3173 H       
  32 H32            3.1755    -2.7333    -5.9197 H       
  33 H33            0.8469    -3.0440    -5.1820 H       
  34 H34            0.2271    -2.5981    -2.8410 H       
@<TRIPOS>BOND
   1    1    2 1
   2    1    5 1
   3    2    3 am
   4    2    7 2
   5    3    4 am
   6    3   16 1
   7    4    5 1
   8    4    6 2
   9    5    8 2
  10    8    9 1
  11    8   23 1
  12    9   10 ar
  13    9   14 ar
  14   10   11 ar
  15   10   24 1
  16   11   12 ar
  17   11   25 1
  18   12   13 ar
  19   12   15 1
  20   13   14 ar
  21   13   26 1
  22   14   27 1
  23   16   17 1
  24   16   28 1
  25   16   29 1
  26   17   18 ar
  27   17   22 ar
  28   18   19 ar
  29   18   30 1
  30   19   20 ar
  31   19   31 1
  32   20   21 ar
  33   20   32 1
  34   21   22 ar
  35   21   33 1
  36   22   34 1

#	End of record

