#	Name: ASD01880850
#	Creating user name:	WinNT
#	Creation time:	15. 06. 2019 19:41

#	Modifying user name:	WinNT
#	Modification time:	15. 06. 2019 19:41

#	Program:	/corina/corina34_cracker 3.40 0067  02.08.2006

@<TRIPOS>MOLECULE
ASD01880850
  64   67    0    0    0
SMALL
NO_CHARGES


@<TRIPOS>ATOM
   1 N1            -0.0332     1.2614    -0.1624 N.ar    
   2 C2             0.0480    -0.0518    -0.2012 C.ar    
   3 N3             1.1952    -0.6837    -0.0485 N.ar    
   4 C4             2.3211    -0.0165     0.1513 C.ar    
   5 C5             2.2868     1.3663     0.1996 C.ar    
   6 C6             1.0547     2.0042     0.0344 C.ar    
   7 C7             3.5457     2.1633     0.4254 C.3     
   8 O8             4.2290     2.3368    -0.8175 O.3     
   9 C9             5.3906     3.0380    -0.7894 C.ar    
  10 C10            6.1068     3.2441    -1.9645 C.ar    
  11 C11            7.2814     3.9539    -1.9347 C.ar    
  12 C12            7.7645     4.4727    -0.7288 C.ar    
  13 C13            7.0411     4.2632     0.4485 C.ar    
  14 C14            5.8608     3.5545     0.4121 C.ar    
  15 C15            8.2768     4.3488    -2.9971 C.3     
  16 N16            9.3278     5.1092    -2.3115 N.am    
  17 C17            9.0284     5.1782    -1.0030 C.2     
  18 O18            9.7042     5.7431    -0.1649 O.2     
  19 C19            0.9600     3.4832     0.0766 C.ar    
  20 C20           -0.0607     4.0958     0.8041 C.ar    
  21 C21           -0.1499     5.4693     0.8436 C.ar    
  22 C22            0.7826     6.2495     0.1552 C.ar    
  23 C23            1.8047     5.6348    -0.5726 C.ar    
  24 C24            1.8949     4.2612    -0.6064 C.ar    
  25 C25            0.6906     7.6780     0.1952 C.1     
  26 N26            0.6176     8.8112     0.2270 N.1     
  27 C27            7.0930     6.2680     1.9070 C.3     
  28 C28            7.5496     4.8156     1.7552 C.3     
  29 C29           10.1891     7.1215    -3.4024 C.3     
  30 C30           10.5095     5.6960    -2.9482 C.3     
  31 C31           -1.4110    -1.0729    -1.9269 C.3     
  32 C32           -1.2063    -0.8563    -0.4262 C.3     
  33 C33            4.2853    -0.9484    -1.0414 C.3     
  34 C34            3.6240    -0.7536     0.3245 C.3     
  35 H35            3.2889     3.1389     0.8382 H       
  36 H36            4.1918     1.6318     1.1241 H       
  37 H37            5.7393     2.8458    -2.8986 H       
  38 H38            5.3020     3.3932     1.3222 H       
  39 H39            8.7009     3.4590    -3.4624 H       
  40 H40            7.7939     4.9719    -3.7499 H       
  41 H41           -0.7814     3.4925     1.3361 H       
  42 H42           -0.9406     5.9433     1.4063 H       
  43 H43            2.5258     6.2369    -1.1054 H       
  44 H44            2.6849     3.7859    -1.1690 H       
  45 H45            7.4608     6.6676     2.8521 H       
  46 H46            7.4890     6.8614     1.0829 H       
  47 H47            6.0039     6.3096     1.8942 H       
  48 H48            7.1536     4.2222     2.5792 H       
  49 H49            8.6387     4.7739     1.7680 H       
  50 H50            9.3653     7.0990    -4.1159 H       
  51 H51            9.9054     7.7229    -2.5387 H       
  52 H52           11.0683     7.5582    -3.8762 H       
  53 H53           11.3333     5.7185    -2.2348 H       
  54 H54           10.7932     5.0947    -3.8119 H       
  55 H55           -0.5560    -1.6109    -2.3363 H       
  56 H56           -2.3182    -1.6548    -2.0895 H       
  57 H57           -1.5046    -0.1073    -2.4239 H       
  58 H58           -1.1127    -1.8219     0.0709 H       
  59 H59           -2.0613    -0.3183    -0.0167 H       
  60 H60            4.4757     0.0244    -1.4949 H       
  61 H61            5.2277    -1.4815    -0.9161 H       
  62 H62            3.6236    -1.5266    -1.6863 H       
  63 H63            4.2857    -0.1753     0.9694 H       
  64 H64            3.4336    -1.7264     0.7780 H       
@<TRIPOS>BOND
   1    1    2 ar
   2    1    6 ar
   3    2    3 ar
   4    2   32 1
   5    3    4 ar
   6    4    5 ar
   7    4   34 1
   8    5    6 ar
   9    5    7 1
  10    6   19 1
  11    7    8 1
  12    7   35 1
  13    7   36 1
  14    8    9 1
  15    9   10 ar
  16    9   14 ar
  17   10   11 ar
  18   10   37 1
  19   11   12 ar
  20   11   15 1
  21   12   13 ar
  22   12   17 1
  23   13   14 ar
  24   13   28 1
  25   14   38 1
  26   15   16 1
  27   15   39 1
  28   15   40 1
  29   16   17 am
  30   16   30 1
  31   17   18 2
  32   19   20 ar
  33   19   24 ar
  34   20   21 ar
  35   20   41 1
  36   21   22 ar
  37   21   42 1
  38   22   23 ar
  39   22   25 1
  40   23   24 ar
  41   23   43 1
  42   24   44 1
  43   25   26 3
  44   27   28 1
  45   27   45 1
  46   27   46 1
  47   27   47 1
  48   28   48 1
  49   28   49 1
  50   29   30 1
  51   29   50 1
  52   29   51 1
  53   29   52 1
  54   30   53 1
  55   30   54 1
  56   31   32 1
  57   31   55 1
  58   31   56 1
  59   31   57 1
  60   32   58 1
  61   32   59 1
  62   33   34 1
  63   33   60 1
  64   33   61 1
  65   33   62 1
  66   34   63 1
  67   34   64 1

#	End of record

