#	Name: ASD02560158
#	Creating user name:	WinNT
#	Creation time:	15. 06. 2019 20:24

#	Modifying user name:	WinNT
#	Modification time:	15. 06. 2019 20:24

#	Program:	/corina/corina34_cracker 3.40 0067  02.08.2006

@<TRIPOS>MOLECULE
ASD02560158
  36   37    0    0    0
SMALL
NO_CHARGES


@<TRIPOS>ATOM
   1 N1            -0.0476     1.2727     0.0918 N.am    
   2 C2             0.0390    -0.0350    -0.2121 C.2     
   3 N3             1.2334    -0.6459    -0.3160 N.am    
   4 C4             2.3980     0.0602    -0.1121 C.2     
   5 C5             2.3310     1.3882     0.1967 C.2     
   6 C6             1.0655     2.0035     0.2993 C.2     
   7 C7             3.5896     2.1849     0.4255 C.3     
   8 C8             3.7079    -0.6134    -0.2259 C.ar    
   9 C9             4.0075    -1.7067     0.5894 C.ar    
  10 C10            4.6497    -0.1633    -1.1533 C.ar    
  11 C11            5.8708    -0.7970    -1.2544 C.ar    
  12 C12            6.1634    -1.8762    -0.4393 C.ar    
  13 C13            5.2325    -2.3310     0.4779 C.ar    
  14 O14            0.9796     3.1874     0.5738 O.2     
  15 S15           -1.3934    -0.9364    -0.4700 S.2     
  16 C16            1.2952    -2.0715    -0.6478 C.3     
  17 O17            0.9906    -2.2520    -2.0323 O.3     
  18 C18            2.0861    -1.9800    -2.9087 C.3     
  19 C19            1.6481    -2.2046    -4.3573 C.3     
  20 O20            0.6412    -1.2516    -4.7038 O.3     
  21 H21           -0.9187     1.6941     0.1581 H       
  22 H22            3.9771     2.5348    -0.5313 H       
  23 H23            3.3670     3.0410     1.0623 H       
  24 H24            4.3351     1.5550     0.9109 H       
  25 H25            3.2819    -2.0625     1.3059 H       
  26 H26            4.4225     0.6787    -1.7903 H       
  27 H27            6.6001    -0.4501    -1.9715 H       
  28 H28            7.1208    -2.3689    -0.5228 H       
  29 H29            5.4672    -3.1739     1.1110 H       
  30 H30            2.2973    -2.4488    -0.4441 H       
  31 H31            0.5714    -2.6172    -0.0424 H       
  32 H32            2.4047    -0.9453    -2.7817 H       
  33 H33            2.9150    -2.6471    -2.6721 H       
  34 H34            2.5058    -2.0837    -5.0191 H       
  35 H35            1.2465    -3.2123    -4.4634 H       
  36 H36            0.3159    -1.3352    -5.6106 H       
@<TRIPOS>BOND
   1    1    2 am
   2    1    6 am
   3    1   21 1
   4    2    3 am
   5    2   15 2
   6    3    4 1
   7    3   16 1
   8    4    5 2
   9    4    8 1
  10    5    6 1
  11    5    7 1
  12    6   14 2
  13    7   22 1
  14    7   23 1
  15    7   24 1
  16    8    9 ar
  17    8   10 ar
  18    9   13 ar
  19    9   25 1
  20   10   11 ar
  21   10   26 1
  22   11   12 ar
  23   11   27 1
  24   12   13 ar
  25   12   28 1
  26   13   29 1
  27   16   17 1
  28   16   30 1
  29   16   31 1
  30   17   18 1
  31   18   19 1
  32   18   32 1
  33   18   33 1
  34   19   20 1
  35   19   34 1
  36   19   35 1
  37   20   36 1

#	End of record

