#	Name: ASD01917552
#	Creating user name:	WinNT
#	Creation time:	15. 06. 2019 20:09

#	Modifying user name:	WinNT
#	Modification time:	15. 06. 2019 20:09

#	Program:	/corina/corina34_cracker 3.40 0067  02.08.2006

@<TRIPOS>MOLECULE
ASD01917552
  24   25    0    0    0
SMALL
NO_CHARGES


@<TRIPOS>ATOM
   1 C1            -0.0218     1.7574     0.0117 C.2     
   2 S2             0.0021    -0.0041     0.0020 S.3     
   3 C3             1.7109     0.0045    -0.0143 C.2     
   4 N4             2.1581     1.2113    -0.0120 N.2     
   5 C5             1.2607     2.1897     0.0018 C.2     
   6 C6             2.5747    -1.2302    -0.0291 C.3     
   7 C7             1.6174     3.5766     0.0058 C.1     
   8 C8             1.9098     4.7135     0.0091 C.1     
   9 C9             2.2665     6.1004     0.0132 C.ar    
  10 C10            3.6121     6.4790     0.0024 C.ar    
  11 C11            3.9513     7.8159     0.0058 C.ar    
  12 C12            2.9641     8.7845     0.0204 C.ar    
  13 C13            1.6247     8.4188     0.0317 C.ar    
  14 C14            1.2714     7.0802     0.0221 C.ar    
  15 O15            0.6596     9.3757     0.0465 O.3     
  16 Br16           0.1354     9.8884    -1.5535 Br      
  17 H17           -0.9032     2.3815     0.0195 H       
  18 H18            1.9409    -2.1170    -0.0283 H       
  19 H19            3.1958    -1.2284    -0.9249 H       
  20 H20            3.2122    -1.2384     0.8550 H       
  21 H21            4.3856     5.7253    -0.0083 H       
  22 H22            4.9912     8.1073    -0.0025 H       
  23 H23            3.2362     9.8297     0.0234 H       
  24 H24            0.2299     6.7947     0.0260 H       
@<TRIPOS>BOND
   1    1    2 1
   2    1    5 2
   3    1   17 1
   4    2    3 1
   5    3    4 2
   6    3    6 1
   7    4    5 1
   8    5    7 1
   9    6   18 1
  10    6   19 1
  11    6   20 1
  12    7    8 3
  13    8    9 1
  14    9   10 ar
  15    9   14 ar
  16   10   11 ar
  17   10   21 1
  18   11   12 ar
  19   11   22 1
  20   12   13 ar
  21   12   23 1
  22   13   14 ar
  23   13   15 1
  24   14   24 1
  25   15   16 1

#	End of record

