#	Name: ASD08150063
#	Creating user name:	WinNT
#	Creation time:	15. 06. 2019 21:15

#	Modifying user name:	WinNT
#	Modification time:	15. 06. 2019 21:15

#	Program:	/corina/corina34_cracker 3.40 0067  02.08.2006

@<TRIPOS>MOLECULE
ASD08150063
  38   39    0    0    0
SMALL
NO_CHARGES


@<TRIPOS>ATOM
   1 O1             0.0103     1.3688    -0.0627 O.3     
   2 C2             0.0175     0.0321    -0.0105 C.2     
   3 N3             1.2459    -0.5023     0.0249 N.am    
   4 C4             2.2382     0.5831    -0.0057 C.3     
   5 C5             1.3812     1.8623    -0.0657 C.3     
   6 O6            -0.9970    -0.6364     0.0042 O.2     
   7 C7             3.1213     0.4690    -1.2499 C.3     
   8 C8             1.5508    -1.9340     0.0843 C.3     
   9 C9             1.7643    -2.3430     1.5190 C.ar    
  10 C10            0.6807    -2.6787     2.3094 C.ar    
  11 C11            0.8737    -3.0540     3.6249 C.ar    
  12 C12            2.1562    -3.0938     4.1526 C.ar    
  13 C13            3.2417    -2.7564     3.3573 C.ar    
  14 C14            3.0439    -2.3873     2.0409 C.ar    
  15 O15            2.3486    -3.4622     5.4464 O.3     
  16 C16            3.6960    -3.4805     5.9222 C.3     
  17 C17            1.6386     2.7384     1.1619 C.3     
  18 C18            0.8089     3.9929     1.0666 C.2     
  19 C19           -0.0029     4.3169     2.0422 C.2     
  20 H20            2.8462     0.5717     0.8989 H       
  21 H21            1.5857     2.4166    -0.9817 H       
  22 H22            2.4928     0.4371    -2.1399 H       
  23 H23            3.7852     1.3318    -1.3047 H       
  24 H24            3.7151    -0.4432    -1.1916 H       
  25 H25            0.7192    -2.5002    -0.3350 H       
  26 H26            2.4548    -2.1371    -0.4898 H       
  27 H27           -0.3175    -2.6472     1.8983 H       
  28 H28            0.0270    -3.3158     4.2420 H       
  29 H29            4.2410    -2.7866     3.7658 H       
  30 H30            3.8890    -2.1291     1.4200 H       
  31 H31            3.7082    -3.7911     6.9669 H       
  32 H32            4.2817    -4.1818     5.3278 H       
  33 H33            4.1258    -2.4826     5.8347 H       
  34 H34            1.3656     2.1899     2.0634 H       
  35 H35            2.6949     3.0037     1.2039 H       
  36 H36            0.8837     4.6247     0.1939 H       
  37 H37           -0.5975     5.2160     1.9739 H       
  38 H38           -0.0777     3.6851     2.9149 H       
@<TRIPOS>BOND
   1    1    2 1
   2    1    5 1
   3    2    3 am
   4    2    6 2
   5    3    4 1
   6    3    8 1
   7    4    5 1
   8    4    7 1
   9    4   20 1
  10    5   17 1
  11    5   21 1
  12    7   22 1
  13    7   23 1
  14    7   24 1
  15    8    9 1
  16    8   25 1
  17    8   26 1
  18    9   10 ar
  19    9   14 ar
  20   10   11 ar
  21   10   27 1
  22   11   12 ar
  23   11   28 1
  24   12   13 ar
  25   12   15 1
  26   13   14 ar
  27   13   29 1
  28   14   30 1
  29   15   16 1
  30   16   31 1
  31   16   32 1
  32   16   33 1
  33   17   18 1
  34   17   34 1
  35   17   35 1
  36   18   19 2
  37   18   36 1
  38   19   37 1
  39   19   38 1

#	End of record

