#	Name: ASD04882308
#	Creating user name:	WinNT
#	Creation time:	15. 06. 2019 20:54

#	Modifying user name:	WinNT
#	Modification time:	15. 06. 2019 20:54

#	Program:	/corina/corina34_cracker 3.40 0067  02.08.2006

@<TRIPOS>MOLECULE
ASD04882308
  67   70    0    0    0
SMALL
NO_CHARGES


@<TRIPOS>ATOM
   1 N1            -0.0169     1.3967     0.0097 N.am    
   2 C2             0.1112     0.0024    -0.0345 C.ar    
   3 C3            -1.0253    -0.8073     0.0449 C.ar    
   4 C4            -0.8996    -2.1911     0.0016 C.ar    
   5 C5             0.3444    -2.7692    -0.1201 C.ar    
   6 C6             1.4851    -1.9654    -0.2000 C.ar    
   7 C7             1.3610    -0.5737    -0.1624 C.ar    
   8 N8            -2.2852    -0.2271     0.1680 N.3     
   9 C9            -3.1505    -0.6029    -0.9588 C.3     
  10 C10           -2.9079    -0.5872     1.4494 C.3     
  11 C11           -4.2525     0.1322     1.5801 C.3     
  12 N12           -5.1178    -0.2437     0.4534 N.3     
  13 C13           -4.4950     0.1164    -0.8281 C.3     
  14 C14            2.8177    -2.5849    -0.3297 C.2     
  15 O15            3.8095    -1.8849    -0.3992 O.2     
  16 C16            0.9202     2.1780    -0.5629 C.2     
  17 C17            0.7425     3.6332    -0.5937 C.2     
  18 O18            1.9139     1.6757    -1.0545 O.2     
  19 N19            2.9358    -3.9269    -0.3713 N.am    
  20 C20           -6.3815     0.3383     0.5768 C.ar    
  21 C21           -7.5125    -0.4639     0.6559 C.ar    
  22 C22           -6.5094     1.7209     0.6265 C.ar    
  23 C23           -7.7602     2.2930     0.7485 C.ar    
  24 C24           -8.8849     1.4913     0.8218 C.ar    
  25 C25           -8.7607     0.1150     0.7779 C.ar    
  26 C26            4.2591    -4.5421    -0.5002 C.3     
  27 C27            4.1135    -6.0650    -0.5232 C.3     
  28 C28            5.4955    -6.7075    -0.6578 C.3     
  29 C29           -7.3781    -1.9641     0.6082 C.3     
  30 O30           -0.3061     4.3147    -0.0876 O.3     
  31 C31           -0.1276     5.6254    -0.2979 C.2     
  32 C32            1.0445     5.8063    -0.9456 C.2     
  33 C33            1.6123     4.5365    -1.1344 C.2     
  34 C34           -1.0777     6.7185     0.1188 C.3     
  35 O35            5.3594    -8.1298    -0.6793 O.3     
  36 H36           -0.7821     1.7998     0.4490 H       
  37 H37           -1.7795    -2.8142     0.0639 H       
  38 H38            0.4388    -3.8446    -0.1534 H       
  39 H39            2.2406     0.0499    -0.2243 H       
  40 H40           -2.6734    -0.3148    -1.8956 H       
  41 H41           -3.3123    -1.6808    -0.9493 H       
  42 H42           -3.0670    -1.6649     1.4863 H       
  43 H43           -2.2541    -0.2875     2.2684 H       
  44 H44           -4.7296    -0.1560     2.5169 H       
  45 H45           -4.0907     1.2101     1.5706 H       
  46 H46           -4.3360     1.1941    -0.8650 H       
  47 H47           -5.1489    -0.1832    -1.6471 H       
  48 H48            2.1446    -4.4853    -0.3159 H       
  49 H49           -5.6315     2.3474     0.5701 H       
  50 H50           -7.8604     3.3676     0.7872 H       
  51 H51           -9.8619     1.9413     0.9179 H       
  52 H52           -9.6409    -0.5082     0.8353 H       
  53 H53            4.7266    -4.2078    -1.4264 H       
  54 H54            4.8800    -4.2492     0.3465 H       
  55 H55            3.6460    -6.3993     0.4030 H       
  56 H56            3.4926    -6.3578    -1.3699 H       
  57 H57            5.9629    -6.3732    -1.5840 H       
  58 H58            6.1163    -6.4146     0.1889 H       
  59 H59           -7.2567    -2.3504     1.6202 H       
  60 H60           -8.2733    -2.3950     0.1598 H       
  61 H61           -6.5071    -2.2320     0.0101 H       
  62 H62            1.4670     6.7505    -1.2559 H       
  63 H63            2.5515     4.3161    -1.6199 H       
  64 H64           -1.9391     6.2789     0.6217 H       
  65 H65           -0.5695     7.4018     0.7992 H       
  66 H66           -1.4117     7.2653    -0.7630 H       
  67 H67            6.1981    -8.6039    -0.7629 H       
@<TRIPOS>BOND
   1    1    2 1
   2    1   16 am
   3    1   36 1
   4    2    3 ar
   5    2    7 ar
   6    3    4 ar
   7    3    8 1
   8    4    5 ar
   9    4   37 1
  10    5    6 ar
  11    5   38 1
  12    6    7 ar
  13    6   14 1
  14    7   39 1
  15    8    9 1
  16    8   10 1
  17    9   13 1
  18    9   40 1
  19    9   41 1
  20   10   11 1
  21   10   42 1
  22   10   43 1
  23   11   12 1
  24   11   44 1
  25   11   45 1
  26   12   13 1
  27   12   20 1
  28   13   46 1
  29   13   47 1
  30   14   15 2
  31   14   19 am
  32   16   18 2
  33   16   17 1
  34   17   30 1
  35   17   33 2
  36   19   26 1
  37   19   48 1
  38   20   21 ar
  39   20   22 ar
  40   21   29 1
  41   21   25 ar
  42   22   23 ar
  43   22   49 1
  44   23   24 ar
  45   23   50 1
  46   24   25 ar
  47   24   51 1
  48   25   52 1
  49   26   27 1
  50   26   53 1
  51   26   54 1
  52   27   28 1
  53   27   55 1
  54   27   56 1
  55   28   35 1
  56   28   57 1
  57   28   58 1
  58   29   59 1
  59   29   60 1
  60   29   61 1
  61   30   31 1
  62   31   32 2
  63   31   34 1
  64   32   33 1
  65   32   62 1
  66   33   63 1
  67   34   64 1
  68   34   65 1
  69   34   66 1
  70   35   67 1

#	End of record

