#	Name: ASD03081283
#	Creating user name:	WinNT
#	Creation time:	15. 06. 2019 20:27

#	Modifying user name:	WinNT
#	Modification time:	15. 06. 2019 20:27

#	Program:	/corina/corina34_cracker 3.40 0067  02.08.2006

@<TRIPOS>MOLECULE
ASD03081283
  30   32    0    0    0
SMALL
NO_CHARGES


@<TRIPOS>ATOM
   1 O1            -0.0162     1.3444     0.0094 O.3     
   2 C2             0.0021    -0.0041     0.0020 C.2     
   3 N3             1.2606    -0.3805    -0.0120 N.2     
   4 N4             2.0177     0.6597    -0.0137 N.2     
   5 C5             1.2725     1.7416    -0.0007 C.2     
   6 C6             0.8547     4.2023     0.0156 C.ar    
   7 C7             1.7573     3.1373     0.0017 C.ar    
   8 C8             3.1296     3.4143    -0.0094 C.ar    
   9 C9             3.5313     4.7386    -0.0061 C.ar    
  10 C10            2.5739     5.7366     0.0079 C.ar    
  11 N11            1.2869     5.4461     0.0182 N.ar    
  12 C12           -1.1769    -0.8946     0.0089 C.ar    
  13 C13           -1.0083    -2.2799    -0.0002 C.ar    
  14 C14           -2.1178    -3.1079     0.0069 C.ar    
  15 C15           -3.3938    -2.5602     0.0229 C.ar    
  16 C16           -3.5626    -1.1880     0.0315 C.ar    
  17 C17           -2.4637    -0.3533     0.0304 C.ar    
  18 O18           -1.9581    -4.4575    -0.0024 O.3     
  19 C19           -3.1462    -5.2514     0.0056 C.3     
  20 H20           -0.2070     4.0044     0.0197 H       
  21 H21            3.8559     2.6151    -0.0199 H       
  22 H22            4.5816     4.9901    -0.0140 H       
  23 H23            2.8849     6.7709     0.0109 H       
  24 H24           -0.0155    -2.7047    -0.0130 H       
  25 H25           -4.2575    -3.2085     0.0284 H       
  26 H26           -4.5575    -0.7681     0.0436 H       
  27 H27           -2.5990     0.7182     0.0417 H       
  28 H28           -3.7243    -5.0311     0.9030 H       
  29 H29           -3.7431    -5.0211    -0.8768 H       
  30 H30           -2.8774    -6.3077    -0.0031 H       
@<TRIPOS>BOND
   1    1    2 1
   2    1    5 1
   3    2    3 2
   4    2   12 1
   5    3    4 1
   6    4    5 2
   7    5    7 1
   8    6    7 ar
   9    6   11 ar
  10    6   20 1
  11    7    8 ar
  12    8    9 ar
  13    8   21 1
  14    9   10 ar
  15    9   22 1
  16   10   11 ar
  17   10   23 1
  18   12   13 ar
  19   12   17 ar
  20   13   14 ar
  21   13   24 1
  22   14   15 ar
  23   14   18 1
  24   15   16 ar
  25   15   25 1
  26   16   17 ar
  27   16   26 1
  28   17   27 1
  29   18   19 1
  30   19   28 1
  31   19   29 1
  32   19   30 1

#	End of record

