#	Name: ASD01916722
#	Creating user name:	WinNT
#	Creation time:	15. 06. 2019 20:07

#	Modifying user name:	WinNT
#	Modification time:	15. 06. 2019 20:07

#	Program:	/corina/corina34_cracker 3.40 0067  02.08.2006

@<TRIPOS>MOLECULE
ASD01916722
  31   33    0    0    0
SMALL
NO_CHARGES


@<TRIPOS>ATOM
   1 O1            -0.0161     1.3384     0.0094 O.3     
   2 C2             0.0021    -0.0041     0.0020 C.2     
   3 N3             1.2263    -0.4377    -0.0120 N.2     
   4 C4             2.0698     0.6302    -0.0143 C.ar    
   5 C5             1.2618     1.7770    -0.0004 C.ar    
   6 C6             1.8476     3.0339     0.0000 C.ar    
   7 C7             3.2219     3.1526    -0.0131 C.ar    
   8 C8             4.0256     2.0227    -0.0269 C.ar    
   9 C9             3.4606     0.7643    -0.0269 C.ar    
  10 C10           -1.2227    -0.8821     0.0098 C.3     
  11 C11           -1.6225    -1.1870     1.4548 C.3     
  12 C12           -2.8188    -2.0447     1.4624 C.1     
  13 C13           -3.7729    -2.7288     1.4684 C.1     
  14 C14           -4.9366    -3.5631     1.4758 C.ar    
  15 C15           -5.4870    -3.9730     2.6908 C.ar    
  16 C16           -6.6114    -4.7790     2.6811 C.ar    
  17 C17           -7.1507    -5.1501     1.4570 C.ar    
  18 C18           -6.5544    -4.7078     0.2905 C.ar    
  19 N19           -5.4871    -3.9364     0.3263 N.ar    
  20 F20            4.2482    -0.3333    -0.0403 F       
  21 H21            1.2286     3.9189     0.0103 H       
  22 H22            3.6752     4.1328    -0.0131 H       
  23 H23            5.1004     2.1286    -0.0374 H       
  24 H24           -2.0417    -0.3678    -0.4930 H       
  25 H25           -1.0047    -1.8144    -0.5113 H       
  26 H26           -0.8035    -1.7014     1.9576 H       
  27 H27           -1.8405    -0.2548     1.9759 H       
  28 H28           -5.0413    -3.6658     3.6253 H       
  29 H29           -7.0596    -5.1124     3.6055 H       
  30 H30           -8.0278    -5.7788     1.4161 H       
  31 H31           -6.9718    -4.9955    -0.6631 H       
@<TRIPOS>BOND
   1    1    2 1
   2    1    5 1
   3    2    3 2
   4    2   10 1
   5    3    4 1
   6    4    5 ar
   7    4    9 ar
   8    5    6 ar
   9    6    7 ar
  10    6   21 1
  11    7    8 ar
  12    7   22 1
  13    8    9 ar
  14    8   23 1
  15    9   20 1
  16   10   11 1
  17   10   24 1
  18   10   25 1
  19   11   12 1
  20   11   26 1
  21   11   27 1
  22   12   13 3
  23   13   14 1
  24   14   15 ar
  25   14   19 ar
  26   15   16 ar
  27   15   28 1
  28   16   17 ar
  29   16   29 1
  30   17   18 ar
  31   17   30 1
  32   18   19 ar
  33   18   31 1

#	End of record

