#	Name: ASD04590396
#	Creating user name:	WinNT
#	Creation time:	15. 06. 2019 20:50

#	Modifying user name:	WinNT
#	Modification time:	15. 06. 2019 20:50

#	Program:	/corina/corina34_cracker 3.40 0067  02.08.2006

@<TRIPOS>MOLECULE
ASD04590396
  53   57    0    0    0
SMALL
NO_CHARGES


@<TRIPOS>ATOM
   1 C1             0.2554     1.4454     1.6356 C.ar    
   2 C2             0.2913     0.0620     1.7351 C.ar    
   3 C3             2.5695     0.0606     0.9797 C.ar    
   4 C4             2.5272     1.4627     0.8804 C.ar    
   5 C5             1.3655     2.1451     1.2109 C.ar    
   6 N6             3.8105    -0.3308     0.5994 N.2     
   7 C7             4.5245     0.7206     0.2772 C.2     
   8 N8             3.7750     1.8554     0.4343 N.pl3   
   9 C9             5.9275     0.6859    -0.1850 C.2     
  10 C10            6.7186    -0.4737    -0.3535 C.2     
  11 C11            7.9399    -0.0810    -0.7901 C.2     
  12 N12            7.9288     1.2740    -0.8959 N.pl3   
  13 N13            6.6599     1.7307    -0.5183 N.2     
  14 N14            6.3114    -1.7968    -0.1112 N.am    
  15 C15            7.1715    -2.8144    -0.3141 C.2     
  16 O16            8.2992    -2.5879    -0.7066 O.2     
  17 O17            6.7813    -4.0825    -0.0818 O.3     
  18 C18            1.4347    -0.6326     1.4121 C.ar    
  19 C19            8.6726    -5.2257     0.7993 C.ar    
  20 C20            7.7278    -5.0513    -0.2012 C.ar    
  21 C21            7.7492    -5.8665    -1.3233 C.ar    
  22 C22            8.7111    -6.8507    -1.4430 C.ar    
  23 C23            9.6536    -7.0237    -0.4436 C.ar    
  24 C24            9.6331    -6.2110     0.6772 C.ar    
  25 F25           10.5938    -7.9866    -0.5619 F       
  26 C26           -0.9312    -0.6859     2.2010 C.3     
  27 N27           -1.7634    -1.0345     1.0417 N.3     
  28 C28           -2.8366    -1.9637     1.4238 C.3     
  29 C29           -3.7130    -2.2528     0.2023 C.3     
  30 O30           -2.8971    -2.7718    -0.8514 O.3     
  31 C31           -1.8420    -1.8921    -1.2492 C.3     
  32 C32           -0.9466    -1.5994    -0.0423 C.3     
  33 H33           -0.6497     1.9778     1.8883 H       
  34 H34            1.3303     3.2219     1.1355 H       
  35 H35            4.0653     2.7651     0.2640 H       
  36 H36            8.7741    -0.7295    -1.0138 H       
  37 H37            8.6700     1.8282    -1.1864 H       
  38 H38            5.4114    -1.9776     0.2021 H       
  39 H39            1.4554    -1.7094     1.4927 H       
  40 H40            8.6597    -4.5888     1.6714 H       
  41 H41            7.0139    -5.7319    -2.1028 H       
  42 H42            8.7277    -7.4857    -2.3164 H       
  43 H43           10.3686    -6.3472     1.4563 H       
  44 H44           -0.6257    -1.5967     2.7159 H       
  45 H45           -1.5036    -0.0574     2.8833 H       
  46 H46           -2.4002    -2.8941     1.7871 H       
  47 H47           -3.4441    -1.5147     2.2096 H       
  48 H48           -4.4756    -2.9853     0.4666 H       
  49 H49           -4.1918    -1.3311    -0.1285 H       
  50 H50           -1.2514    -2.3638    -2.0346 H       
  51 H51           -2.2664    -0.9600    -1.6221 H       
  52 H52           -0.1745    -0.8845    -0.3268 H       
  53 H53           -0.4800    -2.5240     0.2975 H       
@<TRIPOS>BOND
   1    1    2 ar
   2    1    5 ar
   3    1   33 1
   4    2   18 ar
   5    2   26 1
   6    3    4 ar
   7    3    6 1
   8    3   18 ar
   9    4    5 ar
  10    4    8 1
  11    5   34 1
  12    6    7 2
  13    7    8 1
  14    7    9 1
  15    8   35 1
  16    9   10 1
  17    9   13 2
  18   10   11 2
  19   10   14 1
  20   11   12 1
  21   11   36 1
  22   12   13 1
  23   12   37 1
  24   14   15 am
  25   14   38 1
  26   15   16 2
  27   15   17 1
  28   17   20 1
  29   18   39 1
  30   19   20 ar
  31   19   24 ar
  32   19   40 1
  33   20   21 ar
  34   21   22 ar
  35   21   41 1
  36   22   23 ar
  37   22   42 1
  38   23   24 ar
  39   23   25 1
  40   24   43 1
  41   26   27 1
  42   26   44 1
  43   26   45 1
  44   27   28 1
  45   27   32 1
  46   28   29 1
  47   28   46 1
  48   28   47 1
  49   29   30 1
  50   29   48 1
  51   29   49 1
  52   30   31 1
  53   31   32 1
  54   31   50 1
  55   31   51 1
  56   32   52 1
  57   32   53 1

#	End of record

