#	Name: ASD00170972
#	Creating user name:	WinNT
#	Creation time:	15. 06. 2019 18:32

#	Modifying user name:	WinNT
#	Modification time:	15. 06. 2019 18:32

#	Program:	/corina/corina34_cracker 3.40 0067  02.08.2006

@<TRIPOS>MOLECULE
ASD00170972
  46   48    0    0    0
SMALL
NO_CHARGES


@<TRIPOS>ATOM
   1 C1            -0.0144     1.2127    -0.0045 C.2     
   2 O2             0.6001     1.0254    -1.0389 O.2     
   3 C3             0.5331     0.7246     1.2796 C.ar    
   4 C4             1.6984    -0.0440     1.2976 C.ar    
   5 C5             2.2045    -0.4960     2.4980 C.ar    
   6 C6             1.5590    -0.1889     3.6845 C.ar    
   7 C7             0.4022     0.5729     3.6729 C.ar    
   8 C8            -0.1101     1.0354     2.4791 C.ar    
   9 Cl9            2.2021    -0.7615     5.1919 Cl      
  10 C10           -1.4027     3.2938     0.0631 C.2     
  11 C11           -1.2912     1.9259    -0.0312 C.2     
  12 C12           -2.5748     1.2688    -0.1602 C.2     
  13 C13           -3.5949     2.1127    -0.1616 C.2     
  14 S14           -3.0381     3.7690    -0.0042 S.3     
  15 C15           -2.7337    -0.2249    -0.2815 C.3     
  16 N16           -0.3377     4.1611     0.1992 N.pl3   
  17 O17           -4.1211    -0.5489    -0.3921 O.3     
  18 H18           -4.6311     1.8207    -0.2485 H       
  19 C19           -4.4399    -1.8647    -0.5101 C.ar    
  20 C20           -5.7677    -2.2507    -0.6217 C.ar    
  21 C21           -6.0892    -3.5888    -0.7415 C.ar    
  22 C22           -5.0887    -4.5432    -0.7502 C.ar    
  23 C23           -3.7646    -4.1612    -0.6387 C.ar    
  24 C24           -3.4376    -2.8238    -0.5249 C.ar    
  25 C25           -5.4422    -6.0023    -0.8810 C.3     
  26 C26           -4.7846    -6.5757    -2.1379 C.3     
  27 C27           -4.9397    -6.7611     0.3489 C.3     
  28 H28            2.2023    -0.2844     0.3731 H       
  29 H29            3.1057    -1.0910     2.5132 H       
  30 H30           -0.0971     0.8087     4.6010 H       
  31 H31           -1.0096     1.6330     2.4716 H       
  32 H32           -2.2068    -0.5754    -1.1690 H       
  33 H33           -2.3173    -0.7075     0.6027 H       
  34 H34            0.5604     3.8124     0.3117 H       
  35 H35           -0.4874     5.1193     0.1824 H       
  36 H36           -6.5495    -1.5056    -0.6145 H       
  37 H37           -7.1227    -3.8898    -0.8280 H       
  38 H38           -2.9850    -4.9086    -0.6451 H       
  39 H39           -2.4031    -2.5259    -0.4379 H       
  40 H40           -6.5244    -6.1087    -0.9564 H       
  41 H41           -3.7024    -6.4694    -2.0625 H       
  42 H42           -5.0403    -7.6311    -2.2325 H       
  43 H43           -5.1426    -6.0352    -3.0141 H       
  44 H44           -5.4082    -6.3526     1.2443 H       
  45 H45           -5.1953    -7.8164     0.2543 H       
  46 H46           -3.8575    -6.6547     0.4243 H       
@<TRIPOS>BOND
   1    1    2 2
   2    1    3 1
   3    1   11 1
   4    3    4 ar
   5    3    8 ar
   6    4    5 ar
   7    4   28 1
   8    5    6 ar
   9    5   29 1
  10    6    7 ar
  11    6    9 1
  12    7    8 ar
  13    7   30 1
  14    8   31 1
  15   10   11 2
  16   10   14 1
  17   10   16 1
  18   11   12 1
  19   12   13 2
  20   12   15 1
  21   13   14 1
  22   13   18 1
  23   15   17 1
  24   15   32 1
  25   15   33 1
  26   16   34 1
  27   16   35 1
  28   17   19 1
  29   19   20 ar
  30   19   24 ar
  31   20   21 ar
  32   20   36 1
  33   21   22 ar
  34   21   37 1
  35   22   23 ar
  36   22   25 1
  37   23   24 ar
  38   23   38 1
  39   24   39 1
  40   25   26 1
  41   25   27 1
  42   25   40 1
  43   26   41 1
  44   26   42 1
  45   26   43 1
  46   27   44 1
  47   27   45 1
  48   27   46 1

#	End of record

