#	Name: ASD03730597
#	Creating user name:	WinNT
#	Creation time:	15. 06. 2019 20:44

#	Modifying user name:	WinNT
#	Modification time:	15. 06. 2019 20:44

#	Program:	/corina/corina34_cracker 3.40 0067  02.08.2006

@<TRIPOS>MOLECULE
ASD03730597
  71   76    0    0    0
SMALL
NO_CHARGES


@<TRIPOS>ATOM
   1 C1            -0.0187     1.5258     0.0104 C.3     
   2 C2             0.0021    -0.0041     0.0020 C.3     
   3 C3             0.7182    -0.4975    -1.2568 C.3     
   4 H4             1.0039     1.9031     0.0027 H       
   5 H5            -0.5459     1.8868    -0.8726 H       
   6 H6            -0.5289     1.8773     0.9072 H       
   7 H7             0.5293    -0.3651     0.8851 H       
   8 H8            -1.0205    -0.3814     0.0098 H       
   9 H9             1.7408    -0.1202    -1.2645 H       
  10 H10            0.7330    -1.5874    -1.2628 H       
  11 H11            0.1910    -0.1364    -2.1398 H       
  12 O12            8.7045    11.3479     8.1710 O.3     
  13 C13            8.7569     9.9099     8.2234 C.3     
  14 O14            9.8875     9.5783     7.3960 O.3     
  15 C15           10.7158    10.6623     7.4579 C.ar    
  16 C16            9.9871    11.7508     7.9322 C.ar    
  17 C17           12.0550    10.8102     7.1450 C.ar    
  18 C18           12.6826    12.0430     7.2965 C.ar    
  19 C19           11.9415    13.1261     7.7597 C.ar    
  20 C20           10.6079    12.9798     8.0799 C.ar    
  21 O21           13.9802    12.3946     7.0671 O.3     
  22 C22           12.8758    14.3060     7.7843 C.3     
  23 C23           14.0699    13.8273     6.9470 C.3     
  24 N24           12.3019    16.4845     8.1668 N.am    
  25 C25           12.2472    15.5410     7.2055 C.2     
  26 C26           13.2843    14.6836     9.1769 C.ar    
  27 C27           13.9087    13.9998    10.2136 C.ar    
  28 C28           14.1567    14.6515    11.4236 C.ar    
  29 C29           13.7793    15.9700    11.5800 C.ar    
  30 C30           13.1591    16.6474    10.5495 C.ar    
  31 C31           12.9054    16.0115     9.3351 C.ar    
  32 O32           11.7822    15.6652     6.0922 O.2     
  33 C33           11.7886    17.8471     8.0054 C.3     
  34 C34           10.3229    17.8949     8.4419 C.3     
  35 C35            9.7868    19.3180     8.2733 C.3     
  36 C36            8.3211    19.3658     8.7098 C.3     
  37 C37            7.7850    20.7888     8.5413 C.3     
  38 C38           14.3086    12.5871    10.0361 C.2     
  39 C39           15.1580    12.1573     9.1042 C.2     
  40 C40           15.4012    10.7270     9.1195 C.ar    
  41 C41           14.6783    10.0843    10.1301 C.ar    
  42 S42           13.7318    11.2629    11.0294 S.3     
  43 C43           14.7920     8.7000    10.2903 C.ar    
  44 C44           15.6107     7.9721     9.4589 C.ar    
  45 C45           16.3297     8.6070     8.4553 C.ar    
  46 C46           16.2346     9.9535     8.2810 C.ar    
  47 H47            8.9180     9.5695     9.2462 H       
  48 H48            7.8434     9.4782     7.8144 H       
  49 H49           12.6175     9.9631     6.7810 H       
  50 H50           10.0461    13.8263     8.4463 H       
  51 H51           15.0076    14.1930     7.3655 H       
  52 H52           13.9623    14.1362     5.9072 H       
  53 H53           14.6412    14.1262    12.2334 H       
  54 H54           13.9702    16.4751    12.5153 H       
  55 H55           12.8680    17.6786    10.6852 H       
  56 H56           12.3734    18.5309     8.6206 H       
  57 H57           11.8660    18.1430     6.9592 H       
  58 H58            9.7381    17.2111     7.8266 H       
  59 H59           10.2455    17.5990     9.4881 H       
  60 H60           10.3716    20.0018     8.8886 H       
  61 H61            9.8642    19.6139     7.2271 H       
  62 H62            7.7363    18.6820     8.0946 H       
  63 H63            8.2437    19.0699     9.7560 H       
  64 H64            8.3698    21.4726     9.1565 H       
  65 H65            7.8624    21.0847     7.4951 H       
  66 H66            6.7408    20.8229     8.8522 H       
  67 H67           15.6281    12.8208     8.3935 H       
  68 H68           14.2356     8.2009    11.0698 H       
  69 H69           15.6947     6.9031     9.5873 H       
  70 H70           16.9707     8.0274     7.8075 H       
  71 H71           16.7996    10.4338     7.4959 H       
@<TRIPOS>BOND
   1    1    2 1
   2    1    4 1
   3    1    5 1
   4    1    6 1
   5    2    3 1
   6    2    7 1
   7    2    8 1
   8    3    9 1
   9    3   10 1
  10    3   11 1
  11   12   13 1
  12   12   16 1
  13   13   14 1
  14   13   47 1
  15   13   48 1
  16   14   15 1
  17   15   16 ar
  18   15   17 ar
  19   16   20 ar
  20   17   18 ar
  21   17   49 1
  22   18   19 ar
  23   18   21 1
  24   19   20 ar
  25   19   22 1
  26   20   50 1
  27   21   23 1
  28   22   23 1
  29   22   25 1
  30   22   26 1
  31   23   51 1
  32   23   52 1
  33   24   25 am
  34   24   31 1
  35   24   33 1
  36   25   32 2
  37   26   27 ar
  38   26   31 ar
  39   27   28 ar
  40   27   38 1
  41   28   29 ar
  42   28   53 1
  43   29   30 ar
  44   29   54 1
  45   30   31 ar
  46   30   55 1
  47   33   34 1
  48   33   56 1
  49   33   57 1
  50   34   35 1
  51   34   58 1
  52   34   59 1
  53   35   36 1
  54   35   60 1
  55   35   61 1
  56   36   37 1
  57   36   62 1
  58   36   63 1
  59   37   64 1
  60   37   65 1
  61   37   66 1
  62   38   39 2
  63   38   42 1
  64   39   40 1
  65   39   67 1
  66   40   41 ar
  67   40   46 ar
  68   41   42 1
  69   41   43 ar
  70   43   44 ar
  71   43   68 1
  72   44   45 ar
  73   44   69 1
  74   45   46 ar
  75   45   70 1
  76   46   71 1

#	End of record

