#	Name: ASD03640002
#	Creating user name:	WinNT
#	Creation time:	15. 06. 2019 20:43

#	Modifying user name:	WinNT
#	Modification time:	15. 06. 2019 20:43

#	Program:	/corina/corina34_cracker 3.40 0067  02.08.2006

@<TRIPOS>MOLECULE
ASD03640002
  16   17    0    0    0
SMALL
NO_CHARGES


@<TRIPOS>ATOM
   1 C1            -0.0169     1.3953     0.0097 C.2     
   2 C2             0.0021    -0.0041     0.0020 C.2     
   3 N3            -1.1511    -0.6827     0.0098 N.2     
   4 C4            -2.3072    -0.0577     0.0245 C.2     
   5 N5            -2.3905     1.3028     0.0327 N.am    
   6 C6            -1.2679     2.0553     0.0303 C.2     
   7 N7             1.2717     1.8151    -0.0003 N.2     
   8 C8             2.0614     0.7814    -0.0134 C.2     
   9 N9             1.3219    -0.3657    -0.0125 N.pl3   
  10 O10           -1.3319     3.2728     0.0375 O.2     
  11 N11           -3.4639    -0.7961     0.0315 N.pl3   
  12 H12           -3.2598     1.7330     0.0436 H       
  13 H13            3.1405     0.8245    -0.0235 H       
  14 H14            1.6684    -1.2717    -0.0202 H       
  15 H15           -3.4207    -1.7651     0.0256 H       
  16 H16           -4.3246    -0.3490     0.0424 H       
@<TRIPOS>BOND
   1    1    2 2
   2    1    7 1
   3    1    6 1
   4    2    3 1
   5    2    9 1
   6    3    4 2
   7    4    5 1
   8    4   11 1
   9    5    6 am
  10    5   12 1
  11    6   10 2
  12    7    8 2
  13    8    9 1
  14    8   13 1
  15    9   14 1
  16   11   15 1
  17   11   16 1

#	End of record

