#	Name: ASD07931796
#	Creating user name:	WinNT
#	Creation time:	15. 06. 2019 21:13

#	Modifying user name:	WinNT
#	Modification time:	15. 06. 2019 21:13

#	Program:	/corina/corina34_cracker 3.40 0067  02.08.2006

@<TRIPOS>MOLECULE
ASD07931796
  62   65    0    0    0
SMALL
NO_CHARGES


@<TRIPOS>ATOM
   1 C1            -0.0180     1.4754     0.0102 C.2     
   2 C2             0.0021    -0.0041     0.0020 C.2     
   3 N3             1.1814     2.1509     0.0023 N.am    
   4 N4             1.1194    -0.6400     0.4288 N.am    
   5 C5             2.2493     0.1650     0.9143 C.3     
   6 C6             2.4261     1.3707    -0.0208 C.3     
   7 C7            -1.2008     2.1485     0.0195 C.2     
   8 C8            -1.2247     3.5486     0.0291 C.2     
   9 C9            -0.0458     4.2425     0.0303 C.2     
  10 C10            1.2139     3.4948     0.0143 C.2     
  11 O11           -0.9642    -0.6358    -0.3794 O.2     
  12 O12            2.2807     4.0852     0.0118 O.2     
  13 C13            0.4239     6.4402     1.0348 C.2     
  14 N14            0.2552     7.6848     0.6804 N.2     
  15 C15           -0.3161     7.7283    -0.5326 C.2     
  16 C16           -0.5113     6.4636    -0.9513 C.2     
  17 N17           -0.0431     5.6402     0.0404 N.pl3   
  18 C18           -0.6774     8.9771    -1.2948 C.3     
  19 C19            1.2002    -2.1026     0.4064 C.3     
  20 O20            3.1306    -2.1382    -1.0606 O.3     
  21 C21            1.7676    -2.5615    -0.9383 C.3     
  22 C22            1.7492    -4.1032    -1.0158 C.3     
  23 C23            3.0929    -4.4134    -1.7303 C.3     
  24 C24            3.9918    -3.2826    -1.1699 C.3     
  25 C25            5.1250    -2.9954    -2.1210 C.ar    
  26 C26            6.3698    -3.5554    -1.9016 C.ar    
  27 C27            7.4099    -3.2925    -2.7744 C.ar    
  28 C28            7.2036    -2.4682    -3.8679 C.ar    
  29 C29            5.9577    -1.9088    -4.0859 C.ar    
  30 C30            4.9177    -2.1769    -3.2153 C.ar    
  31 Cl31           8.5083    -2.1367    -4.9641 Cl      
  32 Cl32           8.9734    -3.9950    -2.4990 Cl      
  33 H33            2.0426     0.5136     1.9261 H       
  34 H34            3.1572    -0.4381     0.9099 H       
  35 H35            2.6247     1.0242    -1.0350 H       
  36 H36            3.2543     1.9881     0.3270 H       
  37 H37           -2.1297     1.5976     0.0190 H       
  38 H38           -2.1668     4.0767     0.0353 H       
  39 H39            0.8650     6.1025     1.9610 H       
  40 H40           -0.9521     6.1566    -1.8883 H       
  41 H41            0.1651     9.2797    -1.9167 H       
  42 H42           -1.5430     8.7793    -1.9270 H       
  43 H43           -0.9156     9.7756    -0.5921 H       
  44 H44            1.8522    -2.4428     1.2110 H       
  45 H45            0.2042    -2.5236     0.5432 H       
  46 H46            1.1758    -2.1419    -1.7518 H       
  47 H47            1.7303    -4.5416    -0.0180 H       
  48 H48            0.9045    -4.4517    -1.6100 H       
  49 H49            3.4722    -5.3946    -1.4450 H       
  50 H50            2.9899    -4.3335    -2.8125 H       
  51 H51            4.3803    -3.5588    -0.1897 H       
  52 H52            6.5301    -4.1979    -1.0484 H       
  53 H53            5.7961    -1.2658    -4.9384 H       
  54 H54            3.9438    -1.7432    -3.3881 H       
  55 C55           15.1448    16.7638     8.1078 C.2     
  56 C56           15.1653    15.2570     8.0995 C.3     
  57 O57           16.1829    17.3821     8.1012 O.2     
  58 O58           13.9734    17.4191     8.1169 O.3     
  59 F59           16.4904    14.8087     8.0844 F       
  60 F60           14.5231    14.7756     9.2454 F       
  61 F61           14.5013    14.7879     6.9610 F       
  62 H62           14.0109    18.3854     8.1220 H       
@<TRIPOS>BOND
   1    1    2 1
   2    1    3 1
   3    1    7 2
   4    2    4 am
   5    2   11 2
   6    3    6 1
   7    3   10 am
   8    4    5 1
   9    4   19 1
  10    5    6 1
  11    5   33 1
  12    5   34 1
  13    6   35 1
  14    6   36 1
  15    7    8 1
  16    7   37 1
  17    8    9 2
  18    8   38 1
  19    9   10 1
  20    9   17 1
  21   10   12 2
  22   13   14 2
  23   13   17 1
  24   13   39 1
  25   14   15 1
  26   15   16 2
  27   15   18 1
  28   16   17 1
  29   16   40 1
  30   18   41 1
  31   18   42 1
  32   18   43 1
  33   19   21 1
  34   19   44 1
  35   19   45 1
  36   20   21 1
  37   20   24 1
  38   21   22 1
  39   21   46 1
  40   22   23 1
  41   22   47 1
  42   22   48 1
  43   23   24 1
  44   23   49 1
  45   23   50 1
  46   24   25 1
  47   24   51 1
  48   25   26 ar
  49   25   30 ar
  50   26   27 ar
  51   26   52 1
  52   27   28 ar
  53   27   32 1
  54   28   29 ar
  55   28   31 1
  56   29   30 ar
  57   29   53 1
  58   30   54 1
  59   55   56 1
  60   55   57 2
  61   55   58 1
  62   56   59 1
  63   56   60 1
  64   56   61 1
  65   58   62 1

#	End of record

