#	Name: ASD01238018
#	Creating user name:	WinNT
#	Creation time:	15. 06. 2019 19:15

#	Modifying user name:	WinNT
#	Modification time:	15. 06. 2019 19:15

#	Program:	/corina/corina34_cracker 3.40 0067  02.08.2006

@<TRIPOS>MOLECULE
ASD01238018
  40   43    0    0    0
SMALL
NO_CHARGES


@<TRIPOS>ATOM
   1 S1            -0.0205     1.6641     0.0112 S.o2    
   2 N2             0.0021    -0.0041     0.0020 N.am    
   3 C3             1.0266    -0.6290    -0.8592 C.3     
   4 N4             2.3442    -0.1668    -0.4304 N.pl3   
   5 C5             2.6579     1.1747    -0.2294 C.ar    
   6 C6             1.6826     2.1369    -0.0025 C.ar    
   7 C7             2.0311     3.4539     0.2103 C.ar    
   8 C8             3.3622     3.8302     0.1903 C.ar    
   9 C9             4.3421     2.8820    -0.0454 C.ar    
  10 C10            3.9965     1.5618    -0.2535 C.ar    
  11 S11            3.8086     5.5127     0.4636 S.o2    
  12 O12            4.7153     5.8608    -0.5737 O.2     
  13 O13            2.5972     6.2151     0.7052 O.2     
  14 N14            4.6708     5.5677     1.8763 N.am    
  15 O15           -0.5702     2.0739    -1.2335 O.2     
  16 O16           -0.5463     2.0605     1.2705 O.2     
  17 Cl17           6.0123     3.3544    -0.0790 Cl      
  18 C18           -0.6230    -0.6901    -2.7921 C.3     
  19 C19           -0.7550    -0.0994    -4.2012 C.2     
  20 C20            0.0719    -0.7420    -5.0014 C.2     
  21 C21            0.8121    -1.8054    -4.1808 C.3     
  22 C22            1.7609    -0.9788    -3.2555 C.3     
  23 C23            0.7895    -0.2239    -2.3154 C.3     
  24 C24           -0.3188    -2.1890    -3.1576 C.3     
  25 H25           -0.6186    -0.5307     0.5296 H       
  26 H26            0.9712    -1.7135    -0.7653 H       
  27 H27            3.0364    -0.8288    -0.2773 H       
  28 H28            1.2643     4.1923     0.3924 H       
  29 H29            4.7662     0.8266    -0.4364 H       
  30 H30            5.3549     6.2441     2.0010 H       
  31 H31            4.4918     4.9236     2.5792 H       
  32 H32           -1.4504    -0.4996    -2.1085 H       
  33 H33           -1.4138     0.7065    -4.4890 H       
  34 H34            0.2056    -0.5520    -6.0561 H       
  35 H35            1.2734    -2.6164    -4.7444 H       
  36 H36            2.4107    -1.6411    -2.6834 H       
  37 H37            2.3508    -0.2748    -3.8424 H       
  38 H38            0.8976     0.8542    -2.4346 H       
  39 H39            0.0615    -2.7570    -2.3086 H       
  40 H40           -1.1650    -2.6822    -3.6360 H       
@<TRIPOS>BOND
   1    1    2 am
   2    1    6 1
   3    1   15 2
   4    1   16 2
   5    2    3 1
   6    2   25 1
   7    3    4 1
   8    3   23 1
   9    3   26 1
  10    4    5 1
  11    4   27 1
  12    5    6 ar
  13    5   10 ar
  14    6    7 ar
  15    7    8 ar
  16    7   28 1
  17    8    9 ar
  18    8   11 1
  19    9   10 ar
  20    9   17 1
  21   10   29 1
  22   11   12 2
  23   11   13 2
  24   11   14 am
  25   14   30 1
  26   14   31 1
  27   18   19 1
  28   18   23 1
  29   18   24 1
  30   18   32 1
  31   19   20 2
  32   19   33 1
  33   20   21 1
  34   20   34 1
  35   21   22 1
  36   21   24 1
  37   21   35 1
  38   22   23 1
  39   22   36 1
  40   22   37 1
  41   23   38 1
  42   24   39 1
  43   24   40 1

#	End of record

