#	Name: ASD02690040
#	Creating user name:	WinNT
#	Creation time:	15. 06. 2019 20:26

#	Modifying user name:	WinNT
#	Modification time:	15. 06. 2019 20:26

#	Program:	/corina/corina34_cracker 3.40 0067  02.08.2006

@<TRIPOS>MOLECULE
ASD02690040
  58   61    0    0    0
SMALL
NO_CHARGES


@<TRIPOS>ATOM
   1 C1            -0.6320    -0.2363     0.0055 C.2     
   2 O2             0.0602    -0.0690     0.9871 O.2     
   3 C3            -0.0674    -0.8760    -1.1918 C.ar    
   4 C4             1.2684    -1.2930    -1.2019 C.ar    
   5 C5             1.7913    -1.8917    -2.3270 C.ar    
   6 C6             0.9968    -2.0815    -3.4481 C.ar    
   7 C7            -0.3281    -1.6705    -3.4447 C.ar    
   8 C8            -0.8649    -1.0757    -2.3241 C.ar    
   9 F9             1.5158    -2.6689    -4.5485 F       
  10 N10           -4.0827     2.0911     0.8777 N.3     
  11 C11           -4.0319     0.7462     1.4652 C.3     
  12 C12           -2.5883     0.2384     1.4564 C.3     
  13 C13           -2.0726     0.2059     0.0150 C.3     
  14 C14           -2.1813     1.6085    -0.5894 C.3     
  15 C15           -3.6368     2.0766    -0.5214 C.3     
  16 N16           -7.1587     4.7446     2.0095 N.3     
  17 C17           -7.2041     3.3973     2.5918 C.3     
  18 C18           -5.8266     2.7415     2.4720 C.3     
  19 C19           -5.4292     2.6664     0.9951 C.3     
  20 C20           -5.4365     4.0773     0.4003 C.3     
  21 C21           -6.8254     4.6943     0.5802 C.3     
  22 O22           -4.8640     3.5198     3.1860 O.3     
  23 C23           -8.4246     5.4565     2.2302 C.3     
  24 C24           -8.2610     6.9038     1.8435 C.ar    
  25 C25           -8.5272     7.3070     0.5483 C.ar    
  26 C26           -8.3779     8.6341     0.1927 C.ar    
  27 C27           -7.9616     9.5600     1.1343 C.ar    
  28 C28           -7.6953     9.1550     2.4312 C.ar    
  29 C29           -7.8503     7.8283     2.7858 C.ar    
  30 F30           -7.8150    10.8575     0.7876 F       
  31 H31            1.8881    -1.1455    -0.3298 H       
  32 H32            2.8221    -2.2137    -2.3363 H       
  33 H33           -0.9413    -1.8212    -4.3208 H       
  34 H34           -1.8978    -0.7602    -2.3211 H       
  35 H35           -4.3973     0.7842     2.4914 H       
  36 H36           -4.6579     0.0712     0.8817 H       
  37 H37           -1.9643     0.9055     2.0512 H       
  38 H38           -2.5533    -0.7660     1.8782 H       
  39 H39           -2.6716    -0.4916    -0.5705 H       
  40 H40           -1.5509     2.2971    -0.0269 H       
  41 H41           -1.8556     1.5829    -1.6293 H       
  42 H42           -4.2646     1.3953    -1.0956 H       
  43 H43           -3.7152     3.0807    -0.9380 H       
  44 H44           -7.4838     3.4653     3.6431 H       
  45 H45           -7.9403     2.7958     2.0585 H       
  46 H46           -5.8647     1.7357     2.8902 H       
  47 H47           -6.1411     2.0399     0.4578 H       
  48 H48           -4.6961     4.6920     0.9124 H       
  49 H49           -5.1960     4.0259    -0.6616 H       
  50 H50           -7.5633     4.0868     0.0564 H       
  51 H51           -6.8299     5.7044     0.1705 H       
  52 H52           -5.0546     3.6121     4.1295 H       
  53 H53           -9.2069     5.0039     1.6210 H       
  54 H54           -8.6998     5.3905     3.2828 H       
  55 H55           -8.8515     6.5846    -0.1861 H       
  56 H56           -8.5856     8.9489    -0.8194 H       
  57 H57           -7.3705     9.8763     3.1665 H       
  58 H58           -7.6466     7.5128     3.7984 H       
@<TRIPOS>BOND
   1    1    2 2
   2    1    3 1
   3    1   13 1
   4    3    4 ar
   5    3    8 ar
   6    4    5 ar
   7    4   31 1
   8    5    6 ar
   9    5   32 1
  10    6    7 ar
  11    6    9 1
  12    7    8 ar
  13    7   33 1
  14    8   34 1
  15   10   11 1
  16   10   15 1
  17   10   19 1
  18   11   12 1
  19   11   35 1
  20   11   36 1
  21   12   13 1
  22   12   37 1
  23   12   38 1
  24   13   14 1
  25   13   39 1
  26   14   15 1
  27   14   40 1
  28   14   41 1
  29   15   42 1
  30   15   43 1
  31   16   17 1
  32   16   21 1
  33   16   23 1
  34   17   18 1
  35   17   44 1
  36   17   45 1
  37   18   19 1
  38   18   22 1
  39   18   46 1
  40   19   20 1
  41   19   47 1
  42   20   21 1
  43   20   48 1
  44   20   49 1
  45   21   50 1
  46   21   51 1
  47   22   52 1
  48   23   24 1
  49   23   53 1
  50   23   54 1
  51   24   25 ar
  52   24   29 ar
  53   25   26 ar
  54   25   55 1
  55   26   27 ar
  56   26   56 1
  57   27   28 ar
  58   27   30 1
  59   28   29 ar
  60   28   57 1
  61   29   58 1

#	End of record

