#	Name: ASD01814630
#	Creating user name:	WinNT
#	Creation time:	15. 06. 2019 19:32

#	Modifying user name:	WinNT
#	Modification time:	15. 06. 2019 19:32

#	Program:	/corina/corina34_cracker 3.40 0067  02.08.2006

@<TRIPOS>MOLECULE
ASD01814630
  51   55    0    0    0
SMALL
NO_CHARGES


@<TRIPOS>ATOM
   1 C1            -0.0169     1.3972     0.0097 C.2     
   2 C2             0.0021    -0.0041     0.0020 C.2     
   3 C3             1.1986    -0.6593    -0.0129 C.2     
   4 C4             2.3918     0.0821    -0.0204 C.2     
   5 N5             2.3437     1.4497    -0.0122 N.am    
   6 C6             1.1421     2.0937     0.0024 C.2     
   7 C7             3.6227    -0.5889    -0.0356 C.2     
   8 C8             4.7877     0.1218    -0.0425 C.2     
   9 C9             4.7345     1.5280    -0.0346 C.2     
  10 C10            3.4812     2.1736    -0.0189 C.2     
  11 O11            3.4258     3.3917    -0.0123 O.2     
  12 C12            5.9703     2.3140    -0.0413 C.2     
  13 O13            5.9124     3.6618    -0.0337 O.3     
  14 O14            7.0487     1.7516    -0.0537 O.2     
  15 C15            3.6593    -2.0954    -0.0439 C.3     
  16 N16            3.7787    -2.5747    -1.4274 N.3     
  17 C17            5.0708    -2.1909    -2.0071 C.3     
  18 C18            5.2209    -2.7758    -3.3841 C.ar    
  19 C19            4.4304    -3.8177    -3.8281 C.ar    
  20 C20            3.3645    -4.4271    -2.9568 C.3     
  21 C21            3.5994    -4.0335    -1.4974 C.3     
  22 C22            6.1827    -2.2576    -4.2421 C.ar    
  23 N23            6.3146    -2.7741    -5.4512 N.ar    
  24 C24            5.5411    -3.7758    -5.8467 C.ar    
  25 N25            4.6143    -4.2911    -5.0517 N.ar    
  26 C26            5.7167    -4.3320    -7.2103 C.ar    
  27 C27            6.6854    -3.8037    -8.0618 C.ar    
  28 C28            4.9175    -5.3887    -7.6430 C.ar    
  29 C29            5.0853    -5.9023    -8.9129 C.ar    
  30 C30            6.0447    -5.3706    -9.7556 C.ar    
  31 C31            6.8443    -4.3252    -9.3297 C.ar    
  32 H32           -0.9605     1.9226     0.0170 H       
  33 H33           -0.9233    -0.5609     0.0082 H       
  34 H34            1.2282    -1.7389    -0.0187 H       
  35 H35            1.1156     3.1733     0.0087 H       
  36 H36            5.7393    -0.3889    -0.0536 H       
  37 H37            6.7544     4.1373    -0.0385 H       
  38 H38            4.5153    -2.4412     0.5356 H       
  39 H39            2.7412    -2.4836     0.3971 H       
  40 H40            5.1301    -1.1043    -2.0684 H       
  41 H41            5.8753    -2.5579    -1.3698 H       
  42 H42            2.3863    -4.0675    -3.2761 H       
  43 H43            3.3980    -5.5127    -3.0492 H       
  44 H44            4.4946    -4.5307    -1.1239 H       
  45 H45            2.7380    -4.3254    -0.8966 H       
  46 H46            6.8152    -1.4418    -3.9247 H       
  47 H47            7.3102    -2.9876    -7.7303 H       
  48 H48            4.1686    -5.8051    -6.9856 H       
  49 H49            4.4665    -6.7211    -9.2493 H       
  50 H50            6.1728    -5.7758   -10.7485 H       
  51 H51            7.5916    -3.9137    -9.9920 H       
@<TRIPOS>BOND
   1    1    2 1
   2    1    6 2
   3    1   32 1
   4    2    3 2
   5    2   33 1
   6    3    4 1
   7    3   34 1
   8    4    5 1
   9    4    7 2
  10    5    6 1
  11    5   10 am
  12    6   35 1
  13    7    8 1
  14    7   15 1
  15    8    9 2
  16    8   36 1
  17    9   10 1
  18    9   12 1
  19   10   11 2
  20   12   13 1
  21   12   14 2
  22   13   37 1
  23   15   16 1
  24   15   38 1
  25   15   39 1
  26   16   17 1
  27   16   21 1
  28   17   18 1
  29   17   40 1
  30   17   41 1
  31   18   19 ar
  32   18   22 ar
  33   19   20 1
  34   19   25 ar
  35   20   21 1
  36   20   42 1
  37   20   43 1
  38   21   44 1
  39   21   45 1
  40   22   23 ar
  41   22   46 1
  42   23   24 ar
  43   24   25 ar
  44   24   26 1
  45   26   27 ar
  46   26   28 ar
  47   27   31 ar
  48   27   47 1
  49   28   29 ar
  50   28   48 1
  51   29   30 ar
  52   29   49 1
  53   30   31 ar
  54   30   50 1
  55   31   51 1

#	End of record

