#	Name: ASD02198036
#	Creating user name:	WinNT
#	Creation time:	15. 06. 2019 20:18

#	Modifying user name:	WinNT
#	Modification time:	15. 06. 2019 20:18

#	Program:	/corina/corina34_cracker 3.40 0067  02.08.2006

@<TRIPOS>MOLECULE
ASD02198036
  40   42    0    0    0
SMALL
NO_CHARGES


@<TRIPOS>ATOM
   1 C1             1.3916     1.1896    -0.7001 C.2     
   2 C2             1.0981    -0.1464    -0.5224 C.2     
   3 C3            -0.2358    -0.6354    -0.3429 C.1     
   4 S4             3.0702     1.4243    -0.8838 S.3     
   5 C5             3.3950    -0.2940    -0.7210 C.2     
   6 C6             2.2162    -0.9771    -0.5338 C.2     
   7 C7             4.6718    -0.8842    -0.7747 C.2     
   8 O8             4.8051    -2.0718    -0.5327 O.2     
   9 C9             5.8524    -0.0632    -1.1250 C.ar    
  10 N10            2.1477    -2.3519    -0.3721 N.pl3   
  11 N11            0.4553     2.1964    -0.7309 N.pl3   
  12 N12           -1.2939    -1.0233    -0.2005 N.1     
  13 C13            0.8666     3.5332    -0.7822 C.ar    
  14 C14            0.0841     4.4802    -1.4399 C.ar    
  15 C15            0.4961     5.8019    -1.4871 C.ar    
  16 C16            1.6812     6.1790    -0.8829 C.ar    
  17 C17            2.4586     5.2399    -0.2304 C.ar    
  18 C18            2.0519     3.9204    -0.1733 C.ar    
  19 C19            7.1091    -0.3889    -0.6133 C.ar    
  20 C20            8.2056     0.3804    -0.9435 C.ar    
  21 C21            8.0613     1.4728    -1.7802 C.ar    
  22 C22            6.8180     1.8011    -2.2909 C.ar    
  23 C23            5.7145     1.0364    -1.9729 C.ar    
  24 O24           -1.0808     4.1077    -2.0344 O.3     
  25 C25           -1.8310     5.1320    -2.6902 C.3     
  26 H26            2.9591    -2.8831    -0.3878 H       
  27 H27            1.2883    -2.7829    -0.2432 H       
  28 H28           -0.4902     1.9800    -0.7170 H       
  29 H29           -0.1084     6.5380    -1.9962 H       
  30 H30            2.0008     7.2099    -0.9211 H       
  31 H31            3.3837     5.5392     0.2397 H       
  32 H32            2.6610     3.1890     0.3370 H       
  33 H33            7.2230    -1.2412     0.0402 H       
  34 H34            9.1787     0.1296    -0.5479 H       
  35 H35            8.9227     2.0721    -2.0355 H       
  36 H36            6.7118     2.6553    -2.9433 H       
  37 H37            4.7446     1.2937    -2.3722 H       
  38 H38           -2.1038     5.9015    -1.9679 H       
  39 H39           -1.2266     5.5747    -3.4819 H       
  40 H40           -2.7349     4.7012    -3.1209 H       
@<TRIPOS>BOND
   1    1    2 2
   2    1    4 1
   3    1   11 1
   4    2    3 1
   5    2    6 1
   6    3   12 3
   7    4    5 1
   8    5    6 2
   9    5    7 1
  10    6   10 1
  11    7    8 2
  12    7    9 1
  13    9   19 ar
  14    9   23 ar
  15   10   26 1
  16   10   27 1
  17   11   13 1
  18   11   28 1
  19   13   14 ar
  20   13   18 ar
  21   14   15 ar
  22   14   24 1
  23   15   16 ar
  24   15   29 1
  25   16   17 ar
  26   16   30 1
  27   17   18 ar
  28   17   31 1
  29   18   32 1
  30   19   20 ar
  31   19   33 1
  32   20   21 ar
  33   20   34 1
  34   21   22 ar
  35   21   35 1
  36   22   23 ar
  37   22   36 1
  38   23   37 1
  39   24   25 1
  40   25   38 1
  41   25   39 1
  42   25   40 1

#	End of record

