#	Name: ASD02198052
#	Creating user name:	WinNT
#	Creation time:	15. 06. 2019 20:18

#	Modifying user name:	WinNT
#	Modification time:	15. 06. 2019 20:18

#	Program:	/corina/corina34_cracker 3.40 0067  02.08.2006

@<TRIPOS>MOLECULE
ASD02198052
  47   49    0    0    0
SMALL
NO_CHARGES


@<TRIPOS>ATOM
   1 C1            -0.0189     1.3490    -0.2542 C.2     
   2 C2             0.0070    -0.0290    -0.2061 C.2     
   3 C3            -1.1773    -0.8335    -0.2368 C.1     
   4 S4             1.5602     1.9892    -0.1984 S.3     
   5 C5             2.2770     0.3884    -0.1089 C.2     
   6 C6             1.2892    -0.5679    -0.1249 C.2     
   7 C7             3.6576     0.1236    -0.0326 C.2     
   8 C8             4.6309     1.2320    -0.1476 C.ar    
   9 O9             4.0513    -1.0192     0.1282 O.2     
  10 N10            1.5431    -1.9292    -0.0662 N.pl3   
  11 N11           -1.1643     2.1048    -0.3413 N.pl3   
  12 N12           -2.1167    -1.4718    -0.2612 N.1     
  13 C13           -1.0756     3.5665    -0.3860 C.3     
  14 C14           -2.4826     4.1600    -0.4817 C.3     
  15 N15           -2.3937     5.6256    -0.5266 N.3     
  16 C16           -3.6948     6.2219    -0.8552 C.3     
  17 C17           -1.3564     6.0613    -1.4703 C.3     
  18 C18           -1.1919     7.5804    -1.3840 C.3     
  19 C19           -2.5264     8.2531    -1.7171 C.3     
  20 C20           -3.6001     7.7458    -0.7505 C.3     
  21 C21            5.2814     1.7142     0.9888 C.ar    
  22 C22            6.1882     2.7476     0.8749 C.ar    
  23 C23            6.4538     3.3066    -0.3627 C.ar    
  24 C24            5.8128     2.8346    -1.4939 C.ar    
  25 C25            4.9070     1.7967    -1.3951 C.ar    
  26 Cl26           4.1035     1.2047    -2.8155 Cl      
  27 H27            2.4568    -2.2501    -0.0105 H       
  28 H28            0.8072    -2.5609    -0.0808 H       
  29 H29           -2.0309     1.6703    -0.3731 H       
  30 H30           -0.5892     3.9289     0.5196 H       
  31 H31           -0.4938     3.8687    -1.2568 H       
  32 H32           -2.9690     3.7976    -1.3873 H       
  33 H33           -3.0644     3.8578     0.3891 H       
  34 H34           -3.9753     5.9444    -1.8713 H       
  35 H35           -4.4485     5.8561    -0.1578 H       
  36 H36           -0.4117     5.5789    -1.2197 H       
  37 H37           -1.6478     5.7846    -2.4835 H       
  38 H38           -0.8871     7.8566    -0.3746 H       
  39 H39           -0.4329     7.9052    -2.0957 H       
  40 H40           -2.4252     9.3336    -1.6146 H       
  41 H41           -2.8123     8.0085    -2.7401 H       
  42 H42           -4.5617     8.1888    -1.0097 H       
  43 H43           -3.3332     8.0246     0.2688 H       
  44 H44            5.0751     1.2794     1.9557 H       
  45 H45            6.6918     3.1216     1.7541 H       
  46 H46            7.1647     4.1154    -0.4458 H       
  47 H47            6.0241     3.2757    -2.4568 H       
@<TRIPOS>BOND
   1    1    2 2
   2    1    4 1
   3    1   11 1
   4    2    3 1
   5    2    6 1
   6    3   12 3
   7    4    5 1
   8    5    6 2
   9    5    7 1
  10    6   10 1
  11    7    8 1
  12    7    9 2
  13    8   21 ar
  14    8   25 ar
  15   10   27 1
  16   10   28 1
  17   11   13 1
  18   11   29 1
  19   13   14 1
  20   13   30 1
  21   13   31 1
  22   14   15 1
  23   14   32 1
  24   14   33 1
  25   15   16 1
  26   15   17 1
  27   16   20 1
  28   16   34 1
  29   16   35 1
  30   17   18 1
  31   17   36 1
  32   17   37 1
  33   18   19 1
  34   18   38 1
  35   18   39 1
  36   19   20 1
  37   19   40 1
  38   19   41 1
  39   20   42 1
  40   20   43 1
  41   21   22 ar
  42   21   44 1
  43   22   23 ar
  44   22   45 1
  45   23   24 ar
  46   23   46 1
  47   24   25 ar
  48   24   47 1
  49   25   26 1

#	End of record

