#	Name: ASD01811513
#	Creating user name:	WinNT
#	Creation time:	15. 06. 2019 19:26

#	Modifying user name:	WinNT
#	Modification time:	15. 06. 2019 19:26

#	Program:	/corina/corina34_cracker 3.40 0067  02.08.2006

@<TRIPOS>MOLECULE
ASD01811513
  75   80    0    0    0
SMALL
NO_CHARGES


@<TRIPOS>ATOM
   1 C1            -7.9633     2.0836     2.4130 C.1     
   2 C2            -6.8001     2.8896     2.1940 C.ar    
   3 C3            -5.5513     2.4553     2.6431 C.ar    
   4 C4            -4.4349     3.2367     2.4288 C.ar    
   5 C5            -4.5505     4.4485     1.7711 C.ar    
   6 C6            -5.7850     4.8851     1.3239 C.ar    
   7 C7            -6.9086     4.1106     1.5254 C.ar    
   8 N8            -8.8861     1.4442     2.5867 N.1     
   9 N9            -1.8980     7.7381     1.5200 N.am    
  10 C10           -2.3824     7.2078     0.2383 C.3     
  11 C11           -3.6386     6.3693     0.4948 C.3     
  12 C12           -3.3265     5.2969     1.5411 C.3     
  13 C13           -2.9166     5.9672     2.8545 C.3     
  14 C14           -1.6522     6.8011     2.6247 C.3     
  15 F15           -2.2794     4.4900     1.0833 F       
  16 C16           -1.6779     9.0584     1.6777 C.2     
  17 C17           -1.2738     9.5881     2.9977 C.ar    
  18 C18           -2.0198    10.6019     3.6034 C.ar    
  19 C19           -1.6437    11.0974     4.8358 C.ar    
  20 C20           -0.5289    10.5951     5.4779 C.ar    
  21 C21            0.2256     9.5818     4.8837 C.ar    
  22 C22           -0.1515     9.0732     3.6429 C.ar    
  23 O23           -1.8116     9.8137     0.7348 O.2     
  24 N24            5.9543     8.2834     7.3921 N.3     
  25 C25            5.6947     7.8764     6.0276 C.3     
  26 C26            4.4404     6.9891     5.9535 C.3     
  27 C27            3.2404     7.9171     6.0152 C.2     
  28 C28            2.9285     8.6871     7.0725 C.2     
  29 C29            3.7402     8.7410     8.3562 C.3     
  30 C30            5.1216     9.3061     7.9878 C.3     
  31 C31            1.4197     9.0455     5.5728 C.2     
  32 N32            2.2988     8.1330     5.0575 N.pl3   
  33 N33            1.8175     9.3655     6.7878 N.2     
  34 C34            7.3787     8.5829     7.5901 C.3     
  35 C35           -3.2374    11.1563     2.9098 C.3     
  36 C36           -0.1256    11.1425     6.8229 C.3     
  37 C37            0.0807    12.6664     6.8310 C.3     
  38 C38           -0.6064    12.6730     8.2068 C.3     
  39 C39           -1.3116    11.3770     7.7733 C.3     
  40 H40           -5.4597     1.5100     3.1573 H       
  41 H41           -3.4683     2.9021     2.7756 H       
  42 H42           -5.8683     5.8322     0.8115 H       
  43 H43           -7.8708     4.4503     1.1716 H       
  44 H44           -2.6246     8.0335    -0.4307 H       
  45 H45           -1.6119     6.5828    -0.2132 H       
  46 H46           -4.4375     7.0138     0.8616 H       
  47 H47           -3.9530     5.8917    -0.4331 H       
  48 H48           -3.7223     6.6154     3.1990 H       
  49 H49           -2.7171     5.2033     3.6059 H       
  50 H50           -0.8222     6.1429     2.3678 H       
  51 H51           -1.4126     7.3585     3.5302 H       
  52 H52           -2.2237    11.8815     5.2997 H       
  53 H53            0.4262     8.2862     3.1810 H       
  54 H54            5.5444     8.7626     5.4110 H       
  55 H55            6.5517     7.3185     5.6502 H       
  56 H56            4.4328     6.4325     5.0164 H       
  57 H57            4.4216     6.2996     6.7975 H       
  58 H58            3.2512     9.3944     9.0787 H       
  59 H59            3.8470     7.7389     8.7715 H       
  60 H60            5.6063     9.6836     8.8882 H       
  61 H61            4.9965    10.1246     7.2789 H       
  62 H62            2.2588     7.7209     4.1803 H       
  63 H63            7.6765     9.3908     6.9217 H       
  64 H64            7.5459     8.8862     8.6237 H       
  65 H65            7.9706     7.6940     7.3720 H       
  66 H66           -4.0998    10.5278     3.1321 H       
  67 H67           -3.4263    12.1703     3.2624 H       
  68 H68           -3.0669    11.1717     1.8334 H       
  69 H69            0.6961    10.5882     7.2763 H       
  70 H70            1.1285    12.9649     6.8648 H       
  71 H71           -0.4842    13.1876     6.0583 H       
  72 H72            0.0832    12.5372     9.0399 H       
  73 H73           -1.2862    13.5127     8.3513 H       
  74 H74           -2.2572    11.5458     7.2581 H       
  75 H75           -1.3879    10.6347     8.5678 H       
@<TRIPOS>BOND
   1    1    2 1
   2    1    8 3
   3    2    3 ar
   4    2    7 ar
   5    3    4 ar
   6    3   40 1
   7    4    5 ar
   8    4   41 1
   9    5    6 ar
  10    5   12 1
  11    6    7 ar
  12    6   42 1
  13    7   43 1
  14    9   10 1
  15    9   14 1
  16    9   16 am
  17   10   11 1
  18   10   44 1
  19   10   45 1
  20   11   12 1
  21   11   46 1
  22   11   47 1
  23   12   13 1
  24   12   15 1
  25   13   14 1
  26   13   48 1
  27   13   49 1
  28   14   50 1
  29   14   51 1
  30   16   17 1
  31   16   23 2
  32   17   18 ar
  33   17   22 ar
  34   18   19 ar
  35   18   35 1
  36   19   20 ar
  37   19   52 1
  38   20   21 ar
  39   20   36 1
  40   21   22 ar
  41   21   31 1
  42   22   53 1
  43   24   25 1
  44   24   30 1
  45   24   34 1
  46   25   26 1
  47   25   54 1
  48   25   55 1
  49   26   27 1
  50   26   56 1
  51   26   57 1
  52   27   28 2
  53   27   32 1
  54   28   29 1
  55   28   33 1
  56   29   30 1
  57   29   58 1
  58   29   59 1
  59   30   60 1
  60   30   61 1
  61   31   32 1
  62   31   33 2
  63   32   62 1
  64   34   63 1
  65   34   64 1
  66   34   65 1
  67   35   66 1
  68   35   67 1
  69   35   68 1
  70   36   37 1
  71   36   39 1
  72   36   69 1
  73   37   38 1
  74   37   70 1
  75   37   71 1
  76   38   39 1
  77   38   72 1
  78   38   73 1
  79   39   74 1
  80   39   75 1

#	End of record

