#	Name: ASD00170494
#	Creating user name:	WinNT
#	Creation time:	15. 06. 2019 18:32

#	Modifying user name:	WinNT
#	Modification time:	15. 06. 2019 18:32

#	Program:	/corina/corina34_cracker 3.40 0067  02.08.2006

@<TRIPOS>MOLECULE
ASD00170494
  42   45    0    0    0
SMALL
NO_CHARGES


@<TRIPOS>ATOM
   1 C1             0.0908     1.4760     0.1205 C.ar    
   2 C2             0.0066     0.0847     0.1330 C.ar    
   3 C3             1.1634    -0.6943     0.0200 C.ar    
   4 C4             2.3985    -0.0813    -0.1057 C.ar    
   5 C5             2.4642     1.3115    -0.1468 C.ar    
   6 C6             1.3199     2.0880    -0.0194 C.ar    
   7 C7             3.6488    -0.9164    -0.1546 C.3     
   8 C8             4.7006    -0.3087    -1.0811 C.3     
   9 C9             4.8343     1.1659    -0.7985 C.2     
  10 C10            3.7993     1.9424    -0.3751 C.2     
  11 S11            6.2692     2.1648    -0.9417 S.3     
  12 C12            5.3432     3.5740    -0.4329 C.2     
  13 N13            4.1166     3.2254    -0.2019 N.2     
  14 C14           -1.3151    -0.5729     0.2672 C.ar    
  15 O15            1.0748    -2.0500     0.0340 O.3     
  16 C16            1.1475    -2.6917     1.3087 C.3     
  17 N17            5.8484     4.8570    -0.2996 N.pl3   
  18 C18           -2.1382    -0.2722     1.3518 C.ar    
  19 C19           -3.3675    -0.8854     1.4734 C.ar    
  20 C20           -3.7855    -1.8015     0.5177 C.ar    
  21 C21           -2.9682    -2.1034    -0.5631 C.ar    
  22 C22           -1.7404    -1.4892    -0.6940 C.ar    
  23 O23           -4.9972    -2.4043     0.6407 O.3     
  24 C24           -5.3645    -3.3364    -0.3783 C.3     
  25 H25           -0.8038     2.0735     0.2156 H       
  26 H26            1.3914     3.1656    -0.0305 H       
  27 H27            4.0634    -0.9945     0.8505 H       
  28 H28            3.3954    -1.9147    -0.5113 H       
  29 H29            5.6594    -0.7988    -0.9122 H       
  30 H30            4.3975    -0.4533    -2.1181 H       
  31 H31            2.1278    -2.5126     1.7504 H       
  32 H32            0.3749    -2.2883     1.9632 H       
  33 H33            0.9953    -3.7639     1.1849 H       
  34 H34            6.7825     5.0330    -0.4931 H       
  35 H35            5.2680     5.5794    -0.0129 H       
  36 H36           -1.8133     0.4399     2.0960 H       
  37 H37           -4.0055    -0.6529     2.3132 H       
  38 H38           -3.2960    -2.8171    -1.3045 H       
  39 H39           -1.1051    -1.7245    -1.5350 H       
  40 H40           -5.3859    -2.8300    -1.3433 H       
  41 H41           -4.6360    -4.1466    -0.4092 H       
  42 H42           -6.3517    -3.7435    -0.1596 H       
@<TRIPOS>BOND
   1    1    2 ar
   2    1    6 ar
   3    1   25 1
   4    2    3 ar
   5    2   14 1
   6    3    4 ar
   7    3   15 1
   8    4    5 ar
   9    4    7 1
  10    5    6 ar
  11    5   10 1
  12    6   26 1
  13    7    8 1
  14    7   27 1
  15    7   28 1
  16    8    9 1
  17    8   29 1
  18    8   30 1
  19    9   10 2
  20    9   11 1
  21   10   13 1
  22   11   12 1
  23   12   13 2
  24   12   17 1
  25   14   18 ar
  26   14   22 ar
  27   15   16 1
  28   16   31 1
  29   16   32 1
  30   16   33 1
  31   17   34 1
  32   17   35 1
  33   18   19 ar
  34   18   36 1
  35   19   20 ar
  36   19   37 1
  37   20   21 ar
  38   20   23 1
  39   21   22 ar
  40   21   38 1
  41   22   39 1
  42   23   24 1
  43   24   40 1
  44   24   41 1
  45   24   42 1

#	End of record

