#	Name: ASD01813495
#	Creating user name:	WinNT
#	Creation time:	15. 06. 2019 19:30

#	Modifying user name:	WinNT
#	Modification time:	15. 06. 2019 19:30

#	Program:	/corina/corina34_cracker 3.40 0067  02.08.2006

@<TRIPOS>MOLECULE
ASD01813495
  48   51    0    0    0
SMALL
NO_CHARGES


@<TRIPOS>ATOM
   1 C1            -0.0168     1.3834    -0.0465 C.ar    
   2 C2             0.0020    -0.0038    -0.0536 C.ar    
   3 C3             1.1976    -0.6920    -0.0502 C.ar    
   4 C4             2.4035     0.0084    -0.0395 C.ar    
   5 C5             2.3796     1.4130    -0.0324 C.ar    
   6 C6             1.1627     2.0947    -0.0359 C.ar    
   7 N7             3.6056    -0.6668    -0.0350 N.pl3   
   8 C8             4.7891    -0.0410    -0.0235 C.2     
   9 C9             4.8932     1.3356    -0.0152 C.2     
  10 C10            3.6619     2.1417    -0.0212 C.2     
  11 O11            3.7002     3.3596    -0.0146 O.2     
  12 C12            6.2115     1.9851    -0.0016 C.2     
  13 O13            6.3001     3.3303     0.0063 O.3     
  14 O14            7.2221     1.3094     0.0025 O.2     
  15 C15            3.5871    -2.1316    -0.0427 C.3     
  16 C16            3.4445    -2.6248    -1.4595 C.ar    
  17 N17            2.2428    -2.7289    -1.9929 N.ar    
  18 C18            2.0643    -3.1545    -3.2269 C.ar    
  19 C19            3.1534    -3.5133    -4.0177 C.ar    
  20 C20            4.4401    -3.4141    -3.4813 C.ar    
  21 C21            4.5764    -2.9559    -2.1823 C.ar    
  22 C22            2.9507    -3.9935    -5.4072 C.ar    
  23 F23            1.2003    -2.0430    -0.0567 F       
  24 C24            1.6664    -4.0885    -5.9301 C.ar    
  25 C25            1.4837    -4.5409    -7.2390 C.ar    
  26 C26            2.5939    -4.8946    -8.0130 C.ar    
  27 C27            3.8648    -4.7967    -7.4844 C.ar    
  28 C28            4.0493    -4.3446    -6.1919 C.ar    
  29 C29            0.1276    -4.6454    -7.8017 C.2     
  30 O30           -0.8333    -4.3386    -7.1288 O.2     
  31 C31           -0.0665    -5.1338    -9.2140 C.3     
  32 H32           -0.9608     1.9082    -0.0538 H       
  33 H33           -0.9293    -0.5507    -0.0614 H       
  34 H34            1.1454     3.1745    -0.0308 H       
  35 H35            5.6925    -0.6328    -0.0202 H       
  36 H36            7.1887     3.7117     0.0152 H       
  37 H37            4.5175    -2.5090     0.3815 H       
  38 H38            2.7459    -2.4875     0.5522 H       
  39 H39            1.0645    -3.2262    -3.6288 H       
  40 H40            5.3065    -3.6844    -4.0668 H       
  41 H41            5.5553    -2.8663    -1.7349 H       
  42 H42            0.8135    -3.8140    -5.3270 H       
  43 H43            2.4562    -5.2452    -9.0252 H       
  44 H44            4.7194    -5.0711    -8.0850 H       
  45 H45            5.0469    -4.2702    -5.7851 H       
  46 H46            0.9035    -5.3596    -9.6570 H       
  47 H47           -0.6806    -6.0343    -9.2059 H       
  48 H48           -0.5628    -4.3609    -9.8008 H       
@<TRIPOS>BOND
   1    1    2 ar
   2    1    6 ar
   3    1   32 1
   4    2    3 ar
   5    2   33 1
   6    3    4 ar
   7    3   23 1
   8    4    5 ar
   9    4    7 1
  10    5    6 ar
  11    5   10 1
  12    6   34 1
  13    7    8 1
  14    7   15 1
  15    8    9 2
  16    8   35 1
  17    9   10 1
  18    9   12 1
  19   10   11 2
  20   12   13 1
  21   12   14 2
  22   13   36 1
  23   15   16 1
  24   15   37 1
  25   15   38 1
  26   16   17 ar
  27   16   21 ar
  28   17   18 ar
  29   18   19 ar
  30   18   39 1
  31   19   20 ar
  32   19   22 1
  33   20   21 ar
  34   20   40 1
  35   21   41 1
  36   22   24 ar
  37   22   28 ar
  38   24   25 ar
  39   24   42 1
  40   25   26 ar
  41   25   29 1
  42   26   27 ar
  43   26   43 1
  44   27   28 ar
  45   27   44 1
  46   28   45 1
  47   29   30 2
  48   29   31 1
  49   31   46 1
  50   31   47 1
  51   31   48 1

#	End of record

