#	Name: ASD04882231
#	Creating user name:	WinNT
#	Creation time:	15. 06. 2019 20:54

#	Modifying user name:	WinNT
#	Modification time:	15. 06. 2019 20:54

#	Program:	/corina/corina34_cracker 3.40 0067  02.08.2006

@<TRIPOS>MOLECULE
ASD04882231
  83   88    0    0    0
SMALL
NO_CHARGES


@<TRIPOS>ATOM
   1 N1            -0.1361     1.5550    -0.0364 N.am    
   2 C2            -0.0764     0.1552    -0.0459 C.ar    
   3 C3            -1.2529    -0.5955     0.0294 C.ar    
   4 C4            -1.1951    -1.9845     0.0201 C.ar    
   5 C5             0.0208    -2.6257    -0.0639 C.ar    
   6 C6             1.2011    -1.8810    -0.1400 C.ar    
   7 C7             1.1455    -0.4844    -0.1356 C.ar    
   8 N8            -2.4845     0.0486     0.1145 N.3     
   9 C9            -2.6113     0.7769     1.3846 C.3     
  10 C10           -3.5901    -0.9044    -0.0555 C.3     
  11 C11           -4.9202    -0.1475    -0.0352 C.3     
  12 N12           -5.0470     0.5808     1.2349 N.3     
  13 C13           -3.9414     1.5338     1.4049 C.3     
  14 C14           -6.2824     1.2269     1.3202 C.ar    
  15 C15            2.5035    -2.5681    -0.2300 C.2     
  16 O16            3.5299    -1.9194    -0.2961 O.2     
  17 C17            0.8458     2.2674     0.5508 C.2     
  18 O18            1.7293     1.6967     1.1617 O.2     
  19 C19           -6.6345     2.1833     0.3760 C.ar    
  20 C20           -7.1639     0.9107     2.3459 C.ar    
  21 C21           -8.3847     1.5516     2.4273 C.ar    
  22 C22           -8.7299     2.5067     1.4890 C.ar    
  23 C23           -7.8566     2.8202     0.4634 C.ar    
  24 C24            0.8490     3.7386     0.4528 C.2     
  25 N25            2.5557    -3.9149    -0.2388 N.am    
  26 C26           -6.7890    -0.1309     3.3684 C.3     
  27 N27           -0.0679     4.5044    -0.1925 N.2     
  28 C28            0.2735     5.7608    -0.0567 C.2     
  29 O29            1.4031     5.8320     0.6696 O.3     
  30 C30            1.7694     4.5825     0.9978 C.2     
  31 C31            3.8491    -4.5972    -0.3280 C.3     
  32 C32            3.6286    -6.1112    -0.3192 C.3     
  33 C33            4.9793    -6.8238    -0.4125 C.3     
  34 N34            4.7683    -8.2735    -0.4041 N.am    
  35 C35            4.5853    -9.0197    -1.5070 C.2     
  36 C36           -0.4642     6.9157    -0.6122 C.ar    
  37 C37            0.0020     8.2135    -0.3984 C.ar    
  38 C38           -1.6263     6.7121    -1.3575 C.ar    
  39 C39           -2.3096     7.7939    -1.8735 C.ar    
  40 C40           -1.8450     9.0784    -1.6535 C.ar    
  41 C41           -0.6906     9.2867    -0.9199 C.ar    
  42 C42            4.7356    -9.0985     0.8093 C.3     
  43 C43            4.0696   -10.4268     0.3867 C.3     
  44 C44            4.3887   -10.4707    -1.1268 C.3     
  45 O45            4.5781    -8.5919    -2.6419 O.2     
  46 H46           -0.8820     2.0115    -0.4560 H       
  47 H47           -2.1059    -2.5620     0.0791 H       
  48 H48            0.0623    -3.7049    -0.0706 H       
  49 H49            2.0559     0.0936    -0.1943 H       
  50 H50           -2.5826     0.0698     2.2136 H       
  51 H51           -1.7884     1.4850     1.4815 H       
  52 H52           -3.4808    -1.4220    -1.0086 H       
  53 H53           -3.5725    -1.6306     0.7571 H       
  54 H54           -4.9489     0.5596    -0.8642 H       
  55 H55           -5.7431    -0.8556    -0.1321 H       
  56 H56           -4.0507     2.0514     2.3580 H       
  57 H57           -3.9590     2.2600     0.5923 H       
  58 H58           -5.9531     2.4286    -0.4251 H       
  59 H59           -9.0707     1.3061     3.2246 H       
  60 H60           -9.6853     3.0058     1.5546 H       
  61 H61           -8.1292     3.5667    -0.2679 H       
  62 H62            1.7370    -4.4323    -0.1860 H       
  63 H63           -6.2762     0.3473     4.2030 H       
  64 H64           -7.6904    -0.6251     3.7310 H       
  65 H65           -6.1294    -0.8683     2.9110 H       
  66 H66            2.6347     4.2994     1.5787 H       
  67 H67            4.3493    -4.3082    -1.2524 H       
  68 H68            4.4682    -4.3152     0.5236 H       
  69 H69            3.1284    -6.4002     0.6051 H       
  70 H70            3.0095    -6.3932    -1.1709 H       
  71 H71            5.4795    -6.5348    -1.3368 H       
  72 H72            5.5985    -6.5418     0.4391 H       
  73 H73            0.9028     8.3775     0.1743 H       
  74 H74           -1.9898     5.7099    -1.5303 H       
  75 H75           -3.2089     7.6377    -2.4508 H       
  76 H76           -2.3834     9.9218    -2.0599 H       
  77 H77           -0.3333    10.2919    -0.7513 H       
  78 H78            5.7484    -9.2818     1.1681 H       
  79 H79            4.1436    -8.6089     1.5825 H       
  80 H80            4.5230   -11.2723     0.9040 H       
  81 H81            2.9940   -10.3963     0.5603 H       
  82 H82            3.5539   -10.9005    -1.6803 H       
  83 H83            5.3009   -11.0392    -1.3080 H       
@<TRIPOS>BOND
   1    1    2 1
   2    1   17 am
   3    1   46 1
   4    2    3 ar
   5    2    7 ar
   6    3    4 ar
   7    3    8 1
   8    4    5 ar
   9    4   47 1
  10    5    6 ar
  11    5   48 1
  12    6    7 ar
  13    6   15 1
  14    7   49 1
  15    8    9 1
  16    8   10 1
  17    9   13 1
  18    9   50 1
  19    9   51 1
  20   10   11 1
  21   10   52 1
  22   10   53 1
  23   11   12 1
  24   11   54 1
  25   11   55 1
  26   12   13 1
  27   12   14 1
  28   13   56 1
  29   13   57 1
  30   14   19 ar
  31   14   20 ar
  32   15   16 2
  33   15   25 am
  34   17   18 2
  35   17   24 1
  36   19   23 ar
  37   19   58 1
  38   20   21 ar
  39   20   26 1
  40   21   22 ar
  41   21   59 1
  42   22   23 ar
  43   22   60 1
  44   23   61 1
  45   24   27 1
  46   24   30 2
  47   25   31 1
  48   25   62 1
  49   26   63 1
  50   26   64 1
  51   26   65 1
  52   27   28 2
  53   28   29 1
  54   28   36 1
  55   29   30 1
  56   30   66 1
  57   31   32 1
  58   31   67 1
  59   31   68 1
  60   32   33 1
  61   32   69 1
  62   32   70 1
  63   33   34 1
  64   33   71 1
  65   33   72 1
  66   34   35 am
  67   34   42 1
  68   35   45 2
  69   35   44 1
  70   36   37 ar
  71   36   38 ar
  72   37   41 ar
  73   37   73 1
  74   38   39 ar
  75   38   74 1
  76   39   40 ar
  77   39   75 1
  78   40   41 ar
  79   40   76 1
  80   41   77 1
  81   42   43 1
  82   42   78 1
  83   42   79 1
  84   43   44 1
  85   43   80 1
  86   43   81 1
  87   44   82 1
  88   44   83 1

#	End of record

