#	Name: ASD08150382
#	Creating user name:	WinNT
#	Creation time:	15. 06. 2019 21:15

#	Modifying user name:	WinNT
#	Modification time:	15. 06. 2019 21:15

#	Program:	/corina/corina34_cracker 3.40 0067  02.08.2006

@<TRIPOS>MOLECULE
ASD08150382
  46   50    0    0    0
SMALL
NO_CHARGES


@<TRIPOS>ATOM
   1 N1             0.9023     2.9407    -1.6518 N.am    
   2 C2             1.3301     2.3118    -2.7637 C.2     
   3 C3             2.5395     1.5875    -2.7655 C.2     
   4 C4             3.2935     1.5140    -1.6392 C.2     
   5 C5             2.8467     2.1749    -0.4676 C.ar    
   6 C6             3.5909     2.1307     0.7269 C.ar    
   7 N7             3.1766     2.7416     1.8061 N.ar    
   8 C8             2.0311     3.4392     1.8408 C.ar    
   9 C9             1.2183     3.5374     0.6846 C.ar    
  10 C10            1.6382     2.8873    -0.4995 C.ar    
  11 C11            0.0257     4.2661     0.7315 C.ar    
  12 C12           -0.3488     4.8861     1.9124 C.ar    
  13 C13            0.4607     4.7846     3.0524 C.ar    
  14 C14            1.6235     4.0799     3.0224 C.ar    
  15 O15            0.6621     2.3695    -3.7820 O.2     
  16 C16           -1.6120     5.6615     1.9707 C.ar    
  17 C17           -0.2995     3.6579    -1.6771 C.ar    
  18 C18           -0.2924     5.0182    -1.9582 C.ar    
  19 C19           -1.4797     5.7229    -1.9823 C.ar    
  20 C20           -2.6750     5.0757    -1.7270 C.ar    
  21 C21           -2.6855     3.7218    -1.4469 C.ar    
  22 C22           -1.5019     3.0100    -1.4268 C.ar    
  23 C23           -1.6963     6.8386     2.7191 C.ar    
  24 N24           -2.8391     7.5011     2.7461 N.ar    
  25 C25           -3.8952     7.0628     2.0761 C.ar    
  26 N26           -3.8545     5.9513     1.3554 N.ar    
  27 C27           -2.7463     5.2364     1.2739 C.ar    
  28 N28           -5.0736     7.7858     2.1308 N.pl3   
  29 C29           -3.9902     3.0207    -1.1687 C.3     
  30 H30            2.8671     1.0891    -3.6659 H       
  31 H31            4.2204     0.9597    -1.6358 H       
  32 H32            4.5207     1.5820     0.7522 H       
  33 H33           -0.5984     4.3452    -0.1463 H       
  34 H34            0.1572     5.2731     3.9666 H       
  35 H35            2.2350     4.0121     3.9100 H       
  36 H36            0.6407     5.5242    -2.1573 H       
  37 H37           -1.4748     6.7806    -2.2005 H       
  38 H38           -3.6022     5.6292    -1.7461 H       
  39 H39           -1.5112     1.9515    -1.2124 H       
  40 H40           -0.8397     7.2014     3.2678 H       
  41 H41           -2.7202     4.3316     0.6848 H       
  42 H42           -5.1185     8.6011     2.6544 H       
  43 H43           -5.8548     7.4773     1.6456 H       
  44 H44           -4.4073     2.6453    -2.1032 H       
  45 H45           -3.8170     2.1877    -0.4875 H       
  46 H46           -4.6899     3.7222    -0.7144 H       
@<TRIPOS>BOND
   1    1    2 am
   2    1   10 1
   3    1   17 1
   4    2    3 1
   5    2   15 2
   6    3    4 2
   7    3   30 1
   8    4    5 1
   9    4   31 1
  10    5    6 ar
  11    5   10 ar
  12    6    7 ar
  13    6   32 1
  14    7    8 ar
  15    8    9 ar
  16    8   14 ar
  17    9   10 ar
  18    9   11 ar
  19   11   12 ar
  20   11   33 1
  21   12   13 ar
  22   12   16 1
  23   13   14 ar
  24   13   34 1
  25   14   35 1
  26   16   23 ar
  27   16   27 ar
  28   17   18 ar
  29   17   22 ar
  30   18   19 ar
  31   18   36 1
  32   19   20 ar
  33   19   37 1
  34   20   21 ar
  35   20   38 1
  36   21   22 ar
  37   21   29 1
  38   22   39 1
  39   23   24 ar
  40   23   40 1
  41   24   25 ar
  42   25   26 ar
  43   25   28 1
  44   26   27 ar
  45   27   41 1
  46   28   42 1
  47   28   43 1
  48   29   44 1
  49   29   45 1
  50   29   46 1

#	End of record

