#	Name: ASD01912631
#	Creating user name:	WinNT
#	Creation time:	15. 06. 2019 20:00

#	Modifying user name:	WinNT
#	Modification time:	15. 06. 2019 20:00

#	Program:	/corina/corina34_cracker 3.40 0067  02.08.2006

@<TRIPOS>MOLECULE
ASD01912631
  39   42    0    0    0
SMALL
NO_CHARGES


@<TRIPOS>ATOM
   1 C1            -0.0165     1.3669     0.0096 C.2     
   2 N2             0.0021    -0.0041     0.0020 N.pl3   
   3 C3            -1.2021    -0.6918     0.0094 C.2     
   4 C4            -2.3630    -0.0492     0.0231 C.2     
   5 N5            -2.4358     1.3306     0.0312 N.am    
   6 C6            -1.3019     2.0667     0.0309 C.2     
   7 C7             1.3015     1.7836    -0.0008 C.2     
   8 C8             2.0550     0.6111    -0.0143 C.2     
   9 N9             1.2243    -0.4045    -0.0118 N.2     
  10 O10           -1.3490     3.2837     0.0379 O.2     
  11 C11           -3.6841     1.9664     0.0456 C.ar    
  12 C12            3.5595     0.5250    -0.0291 C.3     
  13 O13            4.1121     1.8428    -0.0273 O.3     
  14 C14            5.4673     1.9436    -0.0397 C.ar    
  15 C15            6.0712     3.1926    -0.0388 C.ar    
  16 C16            7.4489     3.2924    -0.0514 C.ar    
  17 C17            8.2260     2.1488    -0.0650 C.ar    
  18 C18            7.6265     0.9028    -0.0664 C.ar    
  19 C19            6.2492     0.7977    -0.0476 C.ar    
  20 C20           -4.2929     2.2754     1.2540 C.ar    
  21 C21           -5.5240     2.9024     1.2664 C.ar    
  22 C22           -6.1519     3.2227     0.0746 C.ar    
  23 C23           -5.5479     2.9157    -1.1334 C.ar    
  24 C24           -4.3130     2.2942    -1.1511 C.ar    
  25 F25           -7.3558     3.8354     0.0902 F       
  26 F26           -3.7235     1.9945    -2.3292 F       
  27 H27           -1.1950    -1.7717     0.0035 H       
  28 H28           -3.2786    -0.6220     0.0277 H       
  29 H29            1.6685     2.7994     0.0008 H       
  30 H30            3.9013    -0.0135     0.8548 H       
  31 H31            3.8843    -0.0040    -0.9251 H       
  32 H32            5.4647     4.0862    -0.0285 H       
  33 H33            7.9195     4.2645    -0.0511 H       
  34 H34            9.3029     2.2289    -0.0749 H       
  35 H35            8.2356     0.0111    -0.0778 H       
  36 H36            5.7814    -0.1758    -0.0487 H       
  37 H37           -3.8046     2.0255     2.1844 H       
  38 H38           -5.9974     3.1427     2.2069 H       
  39 H39           -6.0398     3.1658    -2.0618 H       
@<TRIPOS>BOND
   1    1    2 1
   2    1    7 2
   3    1    6 1
   4    2    3 1
   5    2    9 1
   6    3    4 2
   7    3   27 1
   8    4    5 1
   9    4   28 1
  10    5    6 am
  11    5   11 1
  12    6   10 2
  13    7    8 1
  14    7   29 1
  15    8    9 2
  16    8   12 1
  17   11   20 ar
  18   11   24 ar
  19   12   13 1
  20   12   30 1
  21   12   31 1
  22   13   14 1
  23   14   15 ar
  24   14   19 ar
  25   15   16 ar
  26   15   32 1
  27   16   17 ar
  28   16   33 1
  29   17   18 ar
  30   17   34 1
  31   18   19 ar
  32   18   35 1
  33   19   36 1
  34   20   21 ar
  35   20   37 1
  36   21   22 ar
  37   21   38 1
  38   22   23 ar
  39   22   25 1
  40   23   24 ar
  41   23   39 1
  42   24   26 1

#	End of record

