#	Name: ASD02408057
#	Creating user name:	WinNT
#	Creation time:	15. 06. 2019 20:21

#	Modifying user name:	WinNT
#	Modification time:	15. 06. 2019 20:21

#	Program:	/corina/corina34_cracker 3.40 0067  02.08.2006

@<TRIPOS>MOLECULE
ASD02408057
  38   40    0    0    0
SMALL
NO_CHARGES


@<TRIPOS>ATOM
   1 C1             0.1712     1.0660    -0.0025 C.2     
   2 C2             0.2748    -0.2616    -0.0800 C.2     
   3 C3             1.3736     1.9745    -0.0068 C.3     
   4 C4             1.7110     2.3546    -1.4255 C.2     
   5 N5             2.7614     3.1677    -1.6495 N.am    
   6 N6             0.9790     1.8806    -2.3968 N.2     
   7 C7             1.2321     2.1838    -3.6764 C.2     
   8 C8             2.3100     3.0313    -3.9814 C.2     
   9 C9             3.0923     3.5280    -2.9074 C.2     
  10 N10            0.4467     1.6713    -4.6796 N.pl3   
  11 C11            0.7824     0.3870    -5.3102 C.3     
  12 O12            4.0391     4.2670    -3.1154 O.2     
  13 S13           -1.3296    -0.9814    -0.0472 S.3     
  14 C14           -2.0729     0.6082     0.0733 C.2     
  15 C15           -1.1246     1.5463     0.0761 C.2     
  16 C16           -0.4314    -0.5443    -5.2018 C.3     
  17 N17           -1.6230     0.1815    -5.6636 N.am    
  18 C18           -1.9586     1.4658    -5.0329 C.3     
  19 C19           -0.7480     2.3943    -5.1375 C.3     
  20 C20           -2.3938    -0.3215    -6.6481 C.2     
  21 O21           -3.3748     0.2865    -7.0208 O.2     
  22 C22            2.6134     3.3793    -5.3370 C.1     
  23 N23            2.8541     3.6553    -6.4123 N.1     
  24 H24            1.2021    -0.8106    -0.1521 H       
  25 H25            1.1513     2.8740     0.5672 H       
  26 H26            2.2214     1.4572     0.4422 H       
  27 H27            3.2836     3.4969    -0.9013 H       
  28 H28            1.0273     0.5479    -6.3601 H       
  29 H29            1.6339    -0.0607    -4.7978 H       
  30 H30           -3.1348     0.7961     0.1314 H       
  31 H31           -1.3504     2.6003     0.1429 H       
  32 H32           -0.2743    -1.4242    -5.8257 H       
  33 H33           -0.5676    -0.8484    -4.1639 H       
  34 H34           -2.8102     1.9134    -5.5453 H       
  35 H35           -2.2036     1.3048    -3.9830 H       
  36 H36           -0.9064     3.2737    -4.5132 H       
  37 H37           -0.6094     2.6993    -6.1748 H       
  38 H38           -2.1380    -1.2660    -7.1051 H       
@<TRIPOS>BOND
   1    1    2 2
   2    1    3 1
   3    1   15 1
   4    2   13 1
   5    2   24 1
   6    3    4 1
   7    3   25 1
   8    3   26 1
   9    4    5 1
  10    4    6 2
  11    5    9 am
  12    5   27 1
  13    6    7 1
  14    7    8 2
  15    7   10 1
  16    8    9 1
  17    8   22 1
  18    9   12 2
  19   10   11 1
  20   10   19 1
  21   11   16 1
  22   11   28 1
  23   11   29 1
  24   13   14 1
  25   14   15 2
  26   14   30 1
  27   15   31 1
  28   16   17 1
  29   16   32 1
  30   16   33 1
  31   17   18 1
  32   17   20 am
  33   18   19 1
  34   18   34 1
  35   18   35 1
  36   19   36 1
  37   19   37 1
  38   20   21 2
  39   20   38 1
  40   22   23 3

#	End of record

