#	Name: ASD01941022
#	Creating user name:	WinNT
#	Creation time:	15. 06. 2019 20:13

#	Modifying user name:	WinNT
#	Modification time:	15. 06. 2019 20:13

#	Program:	/corina/corina34_cracker 3.40 0067  02.08.2006

@<TRIPOS>MOLECULE
ASD01941022
  52   56    0    0    0
SMALL
NO_CHARGES


@<TRIPOS>ATOM
   1 N1             0.2616     1.9526    -1.5667 N.am    
   2 C2             0.6017     0.6534    -1.5876 C.2     
   3 N3            -0.2882    -0.3331    -1.3865 N.am    
   4 C4            -1.6088    -0.0520    -1.1460 C.2     
   5 C5            -2.0151     1.2827    -1.1134 C.2     
   6 C6            -1.0153     2.3296    -1.3324 C.2     
   7 N7            -2.5166    -1.0406    -0.9420 N.am    
   8 C8            -3.8115    -0.7699    -0.7065 C.2     
   9 C9            -4.2932     0.5400    -0.6587 C.2     
  10 C10           -3.4179     1.5979    -0.8580 C.2     
  11 C11            0.1388    -1.6672    -1.4236 C.ar    
  12 C12            0.3358    -2.3010    -2.6432 C.ar    
  13 C13            0.7566    -3.6161    -2.6764 C.ar    
  14 C14            0.9818    -4.3015    -1.4967 C.ar    
  15 C15            0.7866    -3.6730    -0.2806 C.ar    
  16 C16            0.3713    -2.3563    -0.2408 C.ar    
  17 C17           -2.0738    -2.4365    -0.9801 C.3     
  18 O18           -4.5883    -1.6946    -0.5297 O.2     
  19 N19           -3.8589     2.9055    -0.8174 N.pl3   
  20 C20           -3.4566     3.7466     0.2237 C.ar    
  21 C21           -2.7304     3.2313     1.2903 C.ar    
  22 C22           -2.3320     4.0583     2.3191 C.ar    
  23 C23           -2.6579     5.4150     2.2892 C.ar    
  24 C24           -3.3874     5.9318     1.2164 C.ar    
  25 C25           -3.7793     5.1008     0.1873 C.ar    
  26 O26            1.7620     0.3579    -1.7973 O.2     
  27 C27            1.2876     2.9732    -1.7946 C.3     
  28 O28           -1.3266     3.5059    -1.3123 O.2     
  29 C29            1.9655     2.9996    -3.1660 C.3     
  30 C30            0.9632     4.0917    -2.7869 C.3     
  31 F31           -4.4847     5.5991    -0.8515 F       
  32 C32           -2.2454     6.2755     3.3569 C.1     
  33 C33           -1.9072     6.9810     4.2322 C.1     
  34 H34           -5.3393     0.7282    -0.4674 H       
  35 H35            0.1597    -1.7663    -3.5648 H       
  36 H36            0.9096    -4.1097    -3.6248 H       
  37 H37            1.3105    -5.3298    -1.5253 H       
  38 H38            0.9630    -4.2110     0.6391 H       
  39 H39            0.2193    -1.8659     0.7093 H       
  40 H40           -1.6470    -2.7088    -0.0148 H       
  41 H41           -2.9251    -3.0820    -1.1960 H       
  42 H42           -1.3197    -2.5574    -1.7578 H       
  43 H43           -4.4479     3.2404    -1.5115 H       
  44 H44           -2.4781     2.1815     1.3138 H       
  45 H45           -1.7682     3.6562     3.1479 H       
  46 H46           -3.6413     6.9812     1.1906 H       
  47 H47            1.8959     3.2301    -0.9274 H       
  48 H48            3.0197     3.2742    -3.2011 H       
  49 H49            1.6481     2.2576    -3.8986 H       
  50 H50           -0.0135     4.0681    -3.2702 H       
  51 H51            1.3581     5.0848    -2.5726 H       
  52 H52           -1.6047     7.6119     5.0151 H       
@<TRIPOS>BOND
   1    1    2 am
   2    1   27 1
   3    1    6 am
   4    2    3 am
   5    2   26 2
   6    3    4 1
   7    3   11 1
   8    4    5 2
   9    4    7 1
  10    5    6 1
  11    5   10 1
  12    6   28 2
  13    7    8 am
  14    7   17 1
  15    8    9 1
  16    8   18 2
  17    9   10 2
  18    9   34 1
  19   10   19 1
  20   11   12 ar
  21   11   16 ar
  22   12   13 ar
  23   12   35 1
  24   13   14 ar
  25   13   36 1
  26   14   15 ar
  27   14   37 1
  28   15   16 ar
  29   15   38 1
  30   16   39 1
  31   17   40 1
  32   17   41 1
  33   17   42 1
  34   19   20 1
  35   19   43 1
  36   20   21 ar
  37   20   25 ar
  38   21   22 ar
  39   21   44 1
  40   22   23 ar
  41   22   45 1
  42   23   24 ar
  43   23   32 1
  44   24   25 ar
  45   24   46 1
  46   25   31 1
  47   27   29 1
  48   27   30 1
  49   27   47 1
  50   29   30 1
  51   29   48 1
  52   29   49 1
  53   30   50 1
  54   30   51 1
  55   32   33 3
  56   33   52 1

#	End of record

