#	Name: ASD01020003
#	Creating user name:	WinNT
#	Creation time:	15. 06. 2019 18:56

#	Modifying user name:	WinNT
#	Modification time:	15. 06. 2019 18:56

#	Program:	/corina/corina34_cracker 3.40 0067  02.08.2006

@<TRIPOS>MOLECULE
ASD01020003
  63   66    0    0    0
SMALL
NO_CHARGES


@<TRIPOS>ATOM
   1 O1            -0.0272     2.5590     0.5740 O.2     
   2 C2            -0.5941     3.5616     0.1941 C.2     
   3 C3             0.2014     4.7991    -0.1328 C.3     
   4 C4             1.6952     4.4708    -0.0913 C.3     
   5 O5             2.0158     3.8682     1.1642 O.3     
   6 C6             2.0359     3.5007    -1.2244 C.3     
   7 C7             2.5051     5.7577    -0.2609 C.3     
   8 N8            -1.9351     3.5673     0.0590 N.am    
   9 C9            -2.7079     2.3625     0.3710 C.3     
  10 C10           -4.1948     2.6351     0.1352 C.3     
  11 N11           -4.9676     1.4302     0.4472 N.pl3   
  12 C12           -5.5045     0.5818    -0.4762 C.2     
  13 C13           -6.1503    -0.4224     0.1458 C.2     
  14 C14           -6.0136    -0.1948     1.5806 C.ar    
  15 C15           -5.2556     0.9818     1.7149 C.ar    
  16 C16           -4.9701     1.4383     3.0066 C.ar    
  17 N17           -5.4267     0.7417     4.0430 N.ar    
  18 C18           -6.1360    -0.3598     3.8719 C.ar    
  19 N19           -6.4273    -0.8314     2.6796 N.ar    
  20 N20           -4.2268     2.5920     3.2014 N.pl3   
  21 C21           -3.9639     3.0442     4.4998 C.ar    
  22 C22           -2.7753     3.7061     4.7773 C.ar    
  23 C23           -2.5160     4.1523     6.0586 C.ar    
  24 C24           -3.4423     3.9391     7.0684 C.ar    
  25 C25           -4.6315     3.2773     6.7922 C.ar    
  26 C26           -4.8945     2.8361     5.5097 C.ar    
  27 Cl27          -5.7906     3.0107     8.0567 Cl      
  28 O28           -3.1858     4.3779     8.3298 O.3     
  29 C29           -2.0656     5.1199     8.5316 C.ar    
  30 C30           -2.0420     6.4572     8.1627 C.ar    
  31 C31           -0.9017     7.2094     8.3690 C.ar    
  32 C32            0.2153     6.6307     8.9424 C.ar    
  33 C33            0.1946     5.2979     9.3106 C.ar    
  34 C34           -0.9449     4.5430     9.1122 C.ar    
  35 C35            1.4142     4.6703     9.9349 C.3     
  36 F36            2.4299     5.6268    10.0378 F       
  37 F37            1.0921     4.1930    11.2099 F       
  38 F38            1.8527     3.6085     9.1365 F       
  39 H39           -0.0659     5.1501    -1.1295 H       
  40 H40           -0.0201     5.5770     0.5979 H       
  41 H41            2.9488     3.6330     1.2607 H       
  42 H42            1.7914     3.9604    -2.1820 H       
  43 H43            3.1001     3.2669    -1.1948 H       
  44 H44            1.4589     2.5839    -1.1035 H       
  45 H45            2.2011     6.4807     0.4960 H       
  46 H46            3.5664     5.5368    -0.1469 H       
  47 H47            2.3248     6.1724    -1.2527 H       
  48 H48           -2.3885     4.3692    -0.2449 H       
  49 H49           -2.3819     1.5451    -0.2722 H       
  50 H50           -2.5495     2.0893     1.4142 H       
  51 H51           -4.5208     3.4525     0.7784 H       
  52 H52           -4.3532     2.9083    -0.9080 H       
  53 H53           -5.4237     0.6984    -1.5468 H       
  54 H54           -6.6714    -1.2413    -0.3276 H       
  55 H55           -6.4865    -0.8937     4.7428 H       
  56 H56           -3.8888     3.0859     2.4381 H       
  57 H57           -2.0532     3.8717     3.9915 H       
  58 H58           -1.5914     4.6670     6.2742 H       
  59 H59           -5.8193     2.3213     5.2945 H       
  60 H60           -2.9142     6.9097     7.7144 H       
  61 H61           -0.8827     8.2503     8.0817 H       
  62 H62            1.1057     7.2205     9.1027 H       
  63 H63           -0.9606     3.5022     9.4003 H       
@<TRIPOS>BOND
   1    1    2 2
   2    2    3 1
   3    2    8 am
   4    3    4 1
   5    3   39 1
   6    3   40 1
   7    4    5 1
   8    4    6 1
   9    4    7 1
  10    5   41 1
  11    6   42 1
  12    6   43 1
  13    6   44 1
  14    7   45 1
  15    7   46 1
  16    7   47 1
  17    8    9 1
  18    8   48 1
  19    9   10 1
  20    9   49 1
  21    9   50 1
  22   10   11 1
  23   10   51 1
  24   10   52 1
  25   11   12 1
  26   11   15 1
  27   12   13 2
  28   12   53 1
  29   13   14 1
  30   13   54 1
  31   14   15 ar
  32   14   19 ar
  33   15   16 ar
  34   16   17 ar
  35   16   20 1
  36   17   18 ar
  37   18   19 ar
  38   18   55 1
  39   20   21 1
  40   20   56 1
  41   21   22 ar
  42   21   26 ar
  43   22   23 ar
  44   22   57 1
  45   23   24 ar
  46   23   58 1
  47   24   25 ar
  48   24   28 1
  49   25   26 ar
  50   25   27 1
  51   26   59 1
  52   28   29 1
  53   29   30 ar
  54   29   34 ar
  55   30   31 ar
  56   30   60 1
  57   31   32 ar
  58   31   61 1
  59   32   33 ar
  60   32   62 1
  61   33   34 ar
  62   33   35 1
  63   34   63 1
  64   35   36 1
  65   35   37 1
  66   35   38 1

#	End of record

