#	Name: ASD03092581
#	Creating user name:	WinNT
#	Creation time:	15. 06. 2019 20:32

#	Modifying user name:	WinNT
#	Modification time:	15. 06. 2019 20:32

#	Program:	/corina/corina34_cracker 3.40 0067  02.08.2006

@<TRIPOS>MOLECULE
ASD03092581
  35   37    0    0    0
SMALL
NO_CHARGES


@<TRIPOS>ATOM
   1 O1            -0.0161     1.3363     0.0094 O.3     
   2 C2             0.0021    -0.0041     0.0020 C.2     
   3 N3             1.2345    -0.4156    -0.0120 N.2     
   4 C4             2.0522     0.6720    -0.0139 C.2     
   5 C5             1.2532     1.7735    -0.0004 C.2     
   6 C6             3.5263     0.6593    -0.0276 C.2     
   7 O7             4.1434     1.7072    -0.0275 O.2     
   8 N8             4.1901    -0.5136    -0.0403 N.am    
   9 C9             5.6549    -0.5262    -0.0539 C.3     
  10 N10            7.4842    -5.8439    -0.3738 N.pl3   
  11 C11            7.5263    -5.9958    -1.7330 C.2     
  12 C12            7.1306    -4.8619    -2.3327 C.2     
  13 C13            6.8088    -3.9057    -1.2706 C.ar    
  14 C14            6.3543    -2.5854    -1.2583 C.ar    
  15 C15            6.1450    -1.9513    -0.0664 C.ar    
  16 C16            6.3804    -2.6090     1.1333 C.ar    
  17 C17            6.8294    -3.9112     1.1442 C.ar    
  18 C18            7.0493    -4.5764    -0.0578 C.ar    
  19 C19            7.9541    -7.2501    -2.4505 C.3     
  20 C20           -1.2146    -0.8932     0.0096 C.3     
  21 H21            1.5784     2.8034     0.0017 H       
  22 H22            3.6978    -1.3495    -0.0404 H       
  23 H23            6.0144    -0.0106    -0.9444 H       
  24 H24            6.0309    -0.0205     0.8354 H       
  25 H25            7.7215    -6.5286     0.2710 H       
  26 H26            7.0625    -4.6876    -3.3963 H       
  27 H27            6.1698    -2.0672    -2.1877 H       
  28 H28            6.2103    -2.0944     2.0674 H       
  29 H29            7.0100    -4.4142     2.0827 H       
  30 H30            7.0858    -7.8878    -2.6165 H       
  31 H31            8.3996    -6.9861    -3.4096 H       
  32 H32            8.6862    -7.7837    -1.8444 H       
  33 H33           -2.1143    -0.2779     0.0216 H       
  34 H34           -1.2137    -1.5180    -0.8836 H       
  35 H35           -1.1960    -1.5269     0.8963 H       
@<TRIPOS>BOND
   1    1    2 1
   2    1    5 1
   3    2    3 2
   4    2   20 1
   5    3    4 1
   6    4    5 2
   7    4    6 1
   8    5   21 1
   9    6    7 2
  10    6    8 am
  11    8    9 1
  12    8   22 1
  13    9   15 1
  14    9   23 1
  15    9   24 1
  16   10   11 1
  17   10   18 1
  18   10   25 1
  19   11   12 2
  20   11   19 1
  21   12   13 1
  22   12   26 1
  23   13   14 ar
  24   13   18 ar
  25   14   15 ar
  26   14   27 1
  27   15   16 ar
  28   16   17 ar
  29   16   28 1
  30   17   18 ar
  31   17   29 1
  32   19   30 1
  33   19   31 1
  34   19   32 1
  35   20   33 1
  36   20   34 1
  37   20   35 1

#	End of record

