#	Name: ASD03080220
#	Creating user name:	WinNT
#	Creation time:	15. 06. 2019 20:26

#	Modifying user name:	WinNT
#	Modification time:	15. 06. 2019 20:26

#	Program:	/corina/corina34_cracker 3.40 0067  02.08.2006

@<TRIPOS>MOLECULE
ASD03080220
  34   36    0    0    0
SMALL
NO_CHARGES


@<TRIPOS>ATOM
   1 N1            -0.0178     1.4642     0.0101 N.3     
   2 C2             0.0021    -0.0041     0.0020 C.3     
   3 C3             0.7039    -0.5130     1.2631 C.3     
   4 C4             2.1331     0.0352     1.3025 C.3     
   5 C5             2.0858     1.5651     1.2611 C.3     
   6 C6             1.3439     2.0138     0.0000 C.3     
   7 N7             3.4510     2.0963     1.2405 N.am    
   8 C8             3.6974     3.3395     1.6991 C.2     
   9 C9             5.0673     3.8725     1.6784 C.2     
  10 O10            2.7862     4.0205     2.1301 O.2     
  11 S11            6.4679     3.0019     1.0785 S.3     
  12 C12            5.4163     5.0891     2.1086 C.2     
  13 C13            7.5297     4.3564     1.4466 C.ar    
  14 C14            8.9097     4.5064     1.2672 C.ar    
  15 C15            6.7808     5.4022     1.9997 C.ar    
  16 C16            7.4502     6.5952     2.3652 C.ar    
  17 C17            8.7914     6.7175     2.1829 C.ar    
  18 C18            9.5313     5.6755     1.6368 C.ar    
  19 Br19           9.9218     3.0971     0.5151 Br      
  20 H20           -0.5582     1.8228    -0.7629 H       
  21 H21           -1.0204    -0.3810    -0.0218 H       
  22 H22            0.5390    -0.3552    -0.8792 H       
  23 H23            0.1597    -0.1738     2.1445 H       
  24 H24            0.7324    -1.6025     1.2493 H       
  25 H25            2.6226    -0.2894     2.2207 H       
  26 H26            2.6892    -0.3354     0.4414 H       
  27 H27            1.5633     1.9370     2.1425 H       
  28 H28            1.8745     1.6533    -0.8812 H       
  29 H29            1.2960     3.1025    -0.0252 H       
  30 H30            4.1775     1.5533     0.8968 H       
  31 H31            4.6964     5.7853     2.5129 H       
  32 H32            6.8905     7.4144     2.7918 H       
  33 H33            9.2877     7.6340     2.4660 H       
  34 H34           10.5965     5.7867     1.4973 H       
@<TRIPOS>BOND
   1    1    2 1
   2    1    6 1
   3    1   20 1
   4    2    3 1
   5    2   21 1
   6    2   22 1
   7    3    4 1
   8    3   23 1
   9    3   24 1
  10    4    5 1
  11    4   25 1
  12    4   26 1
  13    5    6 1
  14    5    7 1
  15    5   27 1
  16    6   28 1
  17    6   29 1
  18    7    8 am
  19    7   30 1
  20    8    9 1
  21    8   10 2
  22    9   12 2
  23    9   11 1
  24   11   13 1
  25   12   15 1
  26   12   31 1
  27   13   15 ar
  28   13   14 ar
  29   14   18 ar
  30   14   19 1
  31   15   16 ar
  32   16   17 ar
  33   16   32 1
  34   17   18 ar
  35   17   33 1
  36   18   34 1

#	End of record

