#	Name: ASD03091123
#	Creating user name:	WinNT
#	Creation time:	15. 06. 2019 20:30

#	Modifying user name:	WinNT
#	Modification time:	15. 06. 2019 20:30

#	Program:	/corina/corina34_cracker 3.40 0067  02.08.2006

@<TRIPOS>MOLECULE
ASD03091123
  66   69    0    0    0
SMALL
NO_CHARGES


@<TRIPOS>ATOM
   1 N1             0.2440     2.0085     0.3918 N.am    
   2 C2             0.0516     0.5650     0.2053 C.3     
   3 C3             1.4418    -0.0915     0.1322 C.3     
   4 C4             2.3825     0.9810     0.7695 C.3     
   5 C5             1.6864     2.3010     0.3733 C.3     
   6 N6             1.9787    -0.7174     2.4215 N.3     
   7 C7             1.5010    -1.2566     1.1369 C.3     
   8 C8             2.1695     0.7400     2.2801 C.3     
   9 C9            -0.7389     2.9172     0.5484 C.2     
  10 O10           -1.9010     2.5624     0.5421 O.2     
  11 O11           -0.4331     4.2182     0.7118 O.3     
  12 N12           -1.5859    -1.8865     6.4884 N.2     
  13 C13           -1.7986    -1.0400     7.4490 C.2     
  14 N14           -1.1803     0.1679     7.5321 N.am    
  15 C15           -0.2896     0.5518     6.5881 C.2     
  16 C16           -0.0255    -0.3850     5.4858 C.ar    
  17 C17            0.8724    -0.0855     4.4638 C.ar    
  18 C18            1.0797    -1.0073     3.4517 C.ar    
  19 C19            0.3965    -2.2233     3.4539 C.ar    
  20 C20           -0.4872    -2.5292     4.4492 C.ar    
  21 C21           -0.7151    -1.6178     5.4827 C.ar    
  22 O22            0.2710     1.6307     6.6491 O.2     
  23 C23           -1.4810     1.0620     8.6530 C.3     
  24 C24           -0.5331     0.7788     9.7898 C.2     
  25 O25            0.3106    -0.0849     9.6750 O.2     
  26 N26           -0.6229     1.4852    10.9340 N.am    
  27 C27            0.2985     1.2099    12.0391 C.3     
  28 C28            0.4346     2.4585    12.9128 C.3     
  29 C29           -0.2462     0.0548    12.8816 C.3     
  30 C30           -1.5425     5.1407     0.8746 C.3     
  31 C31           -2.3529     4.7503     2.1122 C.3     
  32 C32           -1.0029     6.5621     1.0459 C.3     
  33 C33           -2.4406     5.0817    -0.3626 C.3     
  34 H34           -0.5060     0.1553     1.0476 H       
  35 H35           -0.4921     0.3820    -0.7215 H       
  36 H36            1.7299    -0.3713    -0.8812 H       
  37 H37            3.4200     0.9153     0.4419 H       
  38 H38            1.9965     2.6052    -0.6264 H       
  39 H39            1.9217     3.0826     1.0957 H       
  40 H40            0.5072    -1.6861     1.2633 H       
  41 H41            2.1910    -2.0198     0.7772 H       
  42 H42            3.0469     1.0620     2.8411 H       
  43 H43            1.2833     1.2720     2.6260 H       
  44 H44           -2.5034    -1.3088     8.2220 H       
  45 H45            1.4011     0.8563     4.4607 H       
  46 H46            0.5683    -2.9323     2.6576 H       
  47 H47           -1.0093    -3.4745     4.4370 H       
  48 H48           -1.3654     2.0975     8.3329 H       
  49 H49           -2.5060     0.8966     8.9848 H       
  50 H50           -1.2977     2.1760    11.0258 H       
  51 H51            1.2753     0.9385    11.6387 H       
  52 H52           -0.5422     2.7300    13.3133 H       
  53 H53            1.1202     2.2537    13.7351 H       
  54 H54            0.8227     3.2814    12.3126 H       
  55 H55            0.4394    -0.1501    13.7039 H       
  56 H56           -1.2230     0.3262    13.2821 H       
  57 H57           -0.3431    -0.8347    12.2592 H       
  58 H58           -1.7130     4.7923     2.9937 H       
  59 H59           -3.1857     5.4428     2.2345 H       
  60 H60           -2.7373     3.7377     1.9903 H       
  61 H61           -0.4255     6.8402     0.1642 H       
  62 H62           -1.8357     7.2546     1.1681 H       
  63 H63           -0.3630     6.6041     1.9273 H       
  64 H64           -2.8251     4.0691    -0.4846 H       
  65 H65           -3.2734     5.7743    -0.2403 H       
  66 H66           -1.8633     5.3599    -1.2443 H       
@<TRIPOS>BOND
   1    1    2 1
   2    1    5 1
   3    1    9 am
   4    2    3 1
   5    2   34 1
   6    2   35 1
   7    3    4 1
   8    3    7 1
   9    3   36 1
  10    4    5 1
  11    4    8 1
  12    4   37 1
  13    5   38 1
  14    5   39 1
  15    6    7 1
  16    6    8 1
  17    6   18 1
  18    7   40 1
  19    7   41 1
  20    8   42 1
  21    8   43 1
  22    9   10 2
  23    9   11 1
  24   11   30 1
  25   12   13 2
  26   12   21 1
  27   13   14 1
  28   13   44 1
  29   14   15 am
  30   14   23 1
  31   15   16 1
  32   15   22 2
  33   16   17 ar
  34   16   21 ar
  35   17   18 ar
  36   17   45 1
  37   18   19 ar
  38   19   20 ar
  39   19   46 1
  40   20   21 ar
  41   20   47 1
  42   23   24 1
  43   23   48 1
  44   23   49 1
  45   24   25 2
  46   24   26 am
  47   26   27 1
  48   26   50 1
  49   27   28 1
  50   27   29 1
  51   27   51 1
  52   28   52 1
  53   28   53 1
  54   28   54 1
  55   29   55 1
  56   29   56 1
  57   29   57 1
  58   30   31 1
  59   30   33 1
  60   30   32 1
  61   31   58 1
  62   31   59 1
  63   31   60 1
  64   32   61 1
  65   32   62 1
  66   32   63 1
  67   33   64 1
  68   33   65 1
  69   33   66 1

#	End of record

