#	Name: ASD01885463
#	Creating user name:	WinNT
#	Creation time:	15. 06. 2019 19:49

#	Modifying user name:	WinNT
#	Modification time:	15. 06. 2019 19:49

#	Program:	/corina/corina34_cracker 3.40 0067  02.08.2006

@<TRIPOS>MOLECULE
ASD01885463
  59   63    0    0    0
SMALL
NO_CHARGES


@<TRIPOS>ATOM
   1 C1            -0.2351     1.0097    -0.2945 C.ar    
   2 C2            -0.2857    -0.3836    -0.3357 C.ar    
   3 N3            -1.4379    -1.0997    -0.2910 N.2     
   4 C4            -2.5281    -0.8258    -0.9096 C.2     
   5 C5            -2.6639     0.4035    -1.7694 C.3     
   6 C6            -2.4971     1.6148    -0.8872 C.2     
   7 N7            -1.3610     1.8192    -0.2207 N.am    
   8 C8             1.0025     1.6510    -0.3339 C.ar    
   9 C9             2.1753     0.9201    -0.4184 C.ar    
  10 C10            2.1255    -0.4696    -0.4651 C.ar    
  11 C11            0.9129    -1.1141    -0.4246 C.ar    
  12 C12           -3.6768    -1.7376    -0.7758 C.ar    
  13 O13           -3.4055     2.4118    -0.7843 O.2     
  14 C14           -4.9088    -1.4028    -1.3455 C.ar    
  15 C15           -5.9822    -2.2598    -1.2177 C.ar    
  16 C16           -5.8446    -3.4499    -0.5273 C.ar    
  17 C17           -4.6249    -3.7918     0.0430 C.ar    
  18 C18           -3.5384    -2.9436    -0.0838 C.ar    
  19 N19            3.4087     1.5779    -0.4570 N.am    
  20 C20            4.4834     1.0306     0.1445 C.2     
  21 O21            4.3991    -0.0679     0.6571 O.2     
  22 O22            5.6507     1.7010     0.1774 O.3     
  23 C23            6.7659     1.0507     0.8420 C.3     
  24 C24            7.9780     1.9440     0.7795 C.ar    
  25 C25            8.2131     2.8615     1.7863 C.ar    
  26 C26            9.3249     3.6809     1.7290 C.ar    
  27 C27           10.2020     3.5824     0.6651 C.ar    
  28 C28            9.9674     2.6642    -0.3413 C.ar    
  29 C29            8.8579     1.8419    -0.2818 C.ar    
  30 O30           -4.4969    -4.9625     0.7210 O.3     
  31 C31           -4.2775    -4.9032     2.0607 C.ar    
  32 C32           -4.0201    -6.0646     2.7750 C.ar    
  33 C33           -3.7975    -6.0014     4.1369 C.ar    
  34 C34           -3.8314    -4.7823     4.7884 C.ar    
  35 C35           -4.0877    -3.6235     4.0790 C.ar    
  36 C36           -4.3049    -3.6803     2.7159 C.ar    
  37 H37           -1.8928     0.4005    -2.5398 H       
  38 H38           -3.6495     0.4200    -2.2345 H       
  39 H39           -1.3174     2.5926     0.3632 H       
  40 H40            1.0466     2.7295    -0.2986 H       
  41 H41            3.0393    -1.0411    -0.5337 H       
  42 H42            0.8798    -2.1929    -0.4610 H       
  43 H43           -5.0201    -0.4738    -1.8849 H       
  44 H44           -6.9335    -2.0002    -1.6583 H       
  45 H45           -6.6890    -4.1162    -0.4306 H       
  46 H46           -2.5897    -3.2084     0.3592 H       
  47 H47            3.4907     2.4281    -0.9167 H       
  48 H48            6.5076     0.8611     1.8838 H       
  49 H49            6.9847     0.1060     0.3442 H       
  50 H50            7.5278     2.9385     2.6176 H       
  51 H51            9.5081     4.3983     2.5153 H       
  52 H52           11.0702     4.2231     0.6199 H       
  53 H53           10.6525     2.5875    -1.1727 H       
  54 H54            8.6746     1.1245    -1.0680 H       
  55 H55           -3.9943    -7.0172     2.2667 H       
  56 H56           -3.5972    -6.9051     4.6933 H       
  57 H57           -3.6578    -4.7352     5.8533 H       
  58 H58           -4.1136    -2.6725     4.5902 H       
  59 H59           -4.5046    -2.7748     2.1622 H       
@<TRIPOS>BOND
   1    1    2 ar
   2    1    8 ar
   3    1    7 1
   4    2    3 1
   5    2   11 ar
   6    3    4 2
   7    4    5 1
   8    4   12 1
   9    5    6 1
  10    5   37 1
  11    5   38 1
  12    6    7 am
  13    6   13 2
  14    7   39 1
  15    8    9 ar
  16    8   40 1
  17    9   10 ar
  18    9   19 1
  19   10   11 ar
  20   10   41 1
  21   11   42 1
  22   12   14 ar
  23   12   18 ar
  24   14   15 ar
  25   14   43 1
  26   15   16 ar
  27   15   44 1
  28   16   17 ar
  29   16   45 1
  30   17   18 ar
  31   17   30 1
  32   18   46 1
  33   19   20 am
  34   19   47 1
  35   20   21 2
  36   20   22 1
  37   22   23 1
  38   23   24 1
  39   23   48 1
  40   23   49 1
  41   24   25 ar
  42   24   29 ar
  43   25   26 ar
  44   25   50 1
  45   26   27 ar
  46   26   51 1
  47   27   28 ar
  48   27   52 1
  49   28   29 ar
  50   28   53 1
  51   29   54 1
  52   30   31 1
  53   31   32 ar
  54   31   36 ar
  55   32   33 ar
  56   32   55 1
  57   33   34 ar
  58   33   56 1
  59   34   35 ar
  60   34   57 1
  61   35   36 ar
  62   35   58 1
  63   36   59 1

#	End of record

