#	Name: ASD06130019
#	Creating user name:	WinNT
#	Creation time:	15. 06. 2019 21:05

#	Modifying user name:	WinNT
#	Modification time:	15. 06. 2019 21:05

#	Program:	/corina/corina34_cracker 3.40 0067  02.08.2006

@<TRIPOS>MOLECULE
ASD06130019
  41   44    0    0    0
SMALL
NO_CHARGES


@<TRIPOS>ATOM
   1 C1            -0.0184     1.5028     0.0103 C.ar    
   2 C2             0.0021    -0.0041     0.0020 C.3     
   3 C3             1.1700     2.2108     0.0028 C.ar    
   4 Cl4            2.6853     1.3639    -0.0169 Cl      
   5 N5            -0.8975    -0.7970     2.2676 N.2     
   6 N6             0.1422    -0.4981     1.3741 N.pl3   
   7 C7            -1.2247     2.1777     0.0197 C.ar    
   8 C8            -1.2436     3.5598     0.0269 C.ar    
   9 C9            -0.0561     4.2680     0.0247 C.ar    
  10 C10            1.1504     3.5944     0.0104 C.ar    
  11 N11           -0.3987    -1.2060     3.3819 N.2     
  12 C12            0.9441    -1.2088     3.3141 C.ar    
  13 C13            1.3115    -0.7577     2.0332 C.ar    
  14 C14            1.9710    -1.5518     4.2130 C.ar    
  15 N15            3.2292    -1.4339     3.8117 N.ar    
  16 C16            3.5251    -1.0040     2.5979 C.ar    
  17 N17            2.6014    -0.6717     1.7223 N.ar    
  18 C18            4.9747    -0.8918     2.2013 C.3     
  19 C19            5.6883     0.0839     3.1411 C.3     
  20 C20            5.6411    -2.2666     2.3037 C.3     
  21 C21            7.1263    -2.1351     1.9587 C.3     
  22 N22            7.7639    -1.1919     2.8861 N.3     
  23 C23            7.1721     0.1472     2.7719 C.3     
  24 O24            1.6807    -1.9920     5.4601 O.3     
  25 H25           -0.9284    -0.3777    -0.4254 H       
  26 H26            0.8431    -0.3527    -0.5974 H       
  27 H27           -2.1526     1.6251     0.0211 H       
  28 H28           -2.1863     4.0867     0.0339 H       
  29 H29           -0.0715     5.3479     0.0296 H       
  30 H30            2.0779     4.1477     0.0087 H       
  31 H31            5.0447    -0.5274     1.1764 H       
  32 H32            5.2458     1.0750     3.0412 H       
  33 H33            5.5838    -0.2599     4.1702 H       
  34 H34            5.5358    -2.6473     3.3196 H       
  35 H35            5.1648    -2.9547     1.6053 H       
  36 H36            7.6067    -3.1097     2.0445 H       
  37 H37            7.2308    -1.7674     0.9379 H       
  38 H38            7.7144    -1.5292     3.8358 H       
  39 H39            7.2765     0.5042     1.7473 H       
  40 H40            7.6859     0.8303     3.4484 H       
  41 H41            1.5790    -2.9515     5.5249 H       
@<TRIPOS>BOND
   1    1    2 1
   2    1    3 ar
   3    1    7 ar
   4    2    6 1
   5    2   25 1
   6    2   26 1
   7    3    4 1
   8    3   10 ar
   9    5    6 1
  10    5   11 2
  11    6   13 1
  12    7    8 ar
  13    7   27 1
  14    8    9 ar
  15    8   28 1
  16    9   10 ar
  17    9   29 1
  18   10   30 1
  19   11   12 1
  20   12   13 ar
  21   12   14 ar
  22   13   17 ar
  23   14   15 ar
  24   14   24 1
  25   15   16 ar
  26   16   17 ar
  27   16   18 1
  28   18   19 1
  29   18   20 1
  30   18   31 1
  31   19   23 1
  32   19   32 1
  33   19   33 1
  34   20   21 1
  35   20   34 1
  36   20   35 1
  37   21   22 1
  38   21   36 1
  39   21   37 1
  40   22   23 1
  41   22   38 1
  42   23   39 1
  43   23   40 1
  44   24   41 1

#	End of record

