#	Name: ASD01816228
#	Creating user name:	WinNT
#	Creation time:	15. 06. 2019 19:34

#	Modifying user name:	WinNT
#	Modification time:	15. 06. 2019 19:34

#	Program:	/corina/corina34_cracker 3.40 0067  02.08.2006

@<TRIPOS>MOLECULE
ASD01816228
  46   50    0    0    0
SMALL
NO_CHARGES


@<TRIPOS>ATOM
   1 C1            -0.0167     1.3813     0.0096 C.ar    
   2 C2             0.0021    -0.0041     0.0020 C.ar    
   3 C3             1.1984    -0.6909    -0.0131 C.ar    
   4 C4             2.4015     0.0059    -0.0203 C.ar    
   5 C5             2.3790     1.4106    -0.0126 C.ar    
   6 C6             1.1663     2.0916     0.0022 C.ar    
   7 N7             3.6053    -0.6772    -0.0345 N.pl3   
   8 C8             4.7970    -0.0586    -0.0420 C.2     
   9 C9             4.9000     1.3103    -0.0361 C.2     
  10 C10            3.6670     2.1301    -0.0205 C.2     
  11 C11            5.9971     2.2729    -0.0415 C.2     
  12 N12            5.4246     3.4960    -0.0304 N.am    
  13 N13            4.0323     3.3799    -0.0179 N.2     
  14 C14            6.1265     4.7082    -0.0309 C.ar    
  15 C15            5.8873     5.6525     0.9617 C.ar    
  16 C16            7.0667     4.9675    -1.0190 C.ar    
  17 C17            7.7574     6.1637    -1.0169 C.ar    
  18 C18            7.5143     7.1036    -0.0320 C.ar    
  19 C19            6.5827     6.8481     0.9573 C.ar    
  20 F20            4.9771     5.4027     1.9283 F       
  21 O21            7.1914     2.0229    -0.0529 O.2     
  22 C22            3.5779    -2.1419    -0.0411 C.3     
  23 C23            3.5552    -2.6451    -1.4858 C.3     
  24 O24            4.7783    -2.2871    -2.1361 O.3     
  25 C25            4.8701    -2.7596    -3.4835 C.3     
  26 C26            4.7239    -4.2840    -3.4923 C.3     
  27 O27            3.5009    -4.6421    -2.8420 O.3     
  28 C28            3.4091    -4.1695    -1.4946 C.3     
  29 H29           -0.9602     1.9068     0.0169 H       
  30 H30           -0.9289    -0.5516     0.0083 H       
  31 H31            1.2004    -1.7709    -0.0189 H       
  32 H32            1.1506     3.1715     0.0084 H       
  33 H33            5.6983    -0.6536    -0.0527 H       
  34 H34            7.2583     4.2342    -1.7884 H       
  35 H35            8.4887     6.3652    -1.7856 H       
  36 H36            8.0566     8.0375    -0.0330 H       
  37 H37            6.3950     7.5844     1.7248 H       
  38 H38            4.4656    -2.5242     0.4629 H       
  39 H39            2.6860    -2.4910     0.4793 H       
  40 H40            2.7157    -2.1946    -2.0153 H       
  41 H41            4.0747    -2.3139    -4.0808 H       
  42 H42            5.8385    -2.4841    -3.9009 H       
  43 H43            4.7078    -4.6425    -4.5215 H       
  44 H44            5.5636    -4.7335    -2.9621 H       
  45 H45            4.2045    -4.6152    -0.8973 H       
  46 H46            2.4406    -4.4450    -1.0771 H       
@<TRIPOS>BOND
   1    1    2 ar
   2    1    6 ar
   3    1   29 1
   4    2    3 ar
   5    2   30 1
   6    3    4 ar
   7    3   31 1
   8    4    5 ar
   9    4    7 1
  10    5    6 ar
  11    5   10 1
  12    6   32 1
  13    7    8 1
  14    7   22 1
  15    8    9 2
  16    8   33 1
  17    9   10 1
  18    9   11 1
  19   10   13 2
  20   11   12 am
  21   11   21 2
  22   12   13 1
  23   12   14 1
  24   14   15 ar
  25   14   16 ar
  26   15   20 1
  27   15   19 ar
  28   16   17 ar
  29   16   34 1
  30   17   18 ar
  31   17   35 1
  32   18   19 ar
  33   18   36 1
  34   19   37 1
  35   22   23 1
  36   22   38 1
  37   22   39 1
  38   23   24 1
  39   23   28 1
  40   23   40 1
  41   24   25 1
  42   25   26 1
  43   25   41 1
  44   25   42 1
  45   26   27 1
  46   26   43 1
  47   26   44 1
  48   27   28 1
  49   28   45 1
  50   28   46 1

#	End of record

