#	Name: ASD08151297
#	Creating user name:	WinNT
#	Creation time:	15. 06. 2019 21:17

#	Modifying user name:	WinNT
#	Modification time:	15. 06. 2019 21:17

#	Program:	/corina/corina34_cracker 3.40 0067  02.08.2006

@<TRIPOS>MOLECULE
ASD08151297
  56   60    0    0    0
SMALL
NO_CHARGES


@<TRIPOS>ATOM
   1 C1             0.5559     2.3014     1.3857 C.ar    
   2 C2             0.3273     0.9534     1.6278 C.ar    
   3 C3             1.2324    -0.0003     1.2187 C.ar    
   4 C4             2.3948     0.3906     0.5517 C.ar    
   5 C5             2.6240     1.7631     0.3066 C.ar    
   6 C6             1.6957     2.7121     0.7292 C.ar    
   7 N7             3.3130    -0.5154     0.1318 N.2     
   8 C8             4.3942    -0.1515    -0.4882 C.2     
   9 N9             4.6963     1.1457    -0.7658 N.am    
  10 C10            3.8576     2.1422    -0.3976 C.2     
  11 C11            5.8857     1.4527    -1.4387 C.ar    
  12 C12            5.9054     1.5069    -2.8249 C.ar    
  13 C13            7.0844     1.8116    -3.4874 C.ar    
  14 C14            8.2415     2.0614    -2.7633 C.ar    
  15 C15            8.2199     2.0070    -1.3824 C.ar    
  16 C16            5.3640    -1.2203    -0.9219 C.3     
  17 N17            5.3922    -2.2896     0.0792 N.pl3   
  18 O18            4.1149     3.3070    -0.6398 O.2     
  19 C19            7.0458     1.7089    -0.7187 C.ar    
  20 C20            4.9212    -1.7946    -2.2691 C.3     
  21 C21            6.5125    -3.0920     0.2031 C.ar    
  22 C22            6.5557    -4.1221     1.1583 C.ar    
  23 C23            7.7182    -4.9063     1.2400 C.ar    
  24 N24            8.7311    -4.6506     0.4180 N.ar    
  25 C25            8.6487    -3.6706    -0.4672 C.ar    
  26 N26            7.5683    -2.9089    -0.5820 N.ar    
  27 N27            5.6928    -4.5880     2.0946 N.2     
  28 C28            6.2389    -5.5835     2.7296 C.2     
  29 N29            7.4900    -5.8189     2.2386 N.pl3   
  30 C30            1.9359     4.1769     0.4695 C.3     
  31 O31            7.1072     1.8650    -4.8451 O.3     
  32 N32            9.7255    -3.4348    -1.3061 N.pl3   
  33 C33            8.3565     2.1848    -5.4609 C.3     
  34 C34            8.1933     2.1976    -6.9238 C.1     
  35 N35            8.0674     2.2075    -8.0528 N.1     
  36 H36           -0.1680     3.0339     1.7108 H       
  37 H37           -0.5714     0.6492     2.1437 H       
  38 H38            1.0441    -1.0458     1.4133 H       
  39 H39            5.0040     1.3118    -3.3869 H       
  40 H40            9.1601     2.2984    -3.2793 H       
  41 H41            9.1217     2.2019    -0.8211 H       
  42 H42            6.3601    -0.7887    -1.0206 H       
  43 H43            4.6254    -2.4350     0.6552 H       
  44 H44            7.0315     1.6670     0.3604 H       
  45 H45            4.9293    -1.0053    -3.0208 H       
  46 H46            5.6057    -2.5883    -2.5684 H       
  47 H47            3.9133    -2.1992    -2.1779 H       
  48 H48            5.7713    -6.1408     3.5278 H       
  49 H49            8.1051    -6.5057     2.5401 H       
  50 H50            1.6095     4.4251    -0.5405 H       
  51 H51            1.3728     4.7707     1.1895 H       
  52 H52            2.9991     4.3945     0.5715 H       
  53 H53           10.5223    -3.9839    -1.2386 H       
  54 H54            9.6828    -2.7206    -1.9611 H       
  55 H55            8.6869     3.1671    -5.1236 H       
  56 H56            9.0996     1.4368    -5.1848 H       
@<TRIPOS>BOND
   1    1    2 ar
   2    1    6 ar
   3    1   36 1
   4    2    3 ar
   5    2   37 1
   6    3    4 ar
   7    3   38 1
   8    4    5 ar
   9    4    7 1
  10    5    6 ar
  11    5   10 1
  12    6   30 1
  13    7    8 2
  14    8    9 1
  15    8   16 1
  16    9   10 am
  17    9   11 1
  18   10   18 2
  19   11   12 ar
  20   11   19 ar
  21   12   13 ar
  22   12   39 1
  23   13   14 ar
  24   13   31 1
  25   14   15 ar
  26   14   40 1
  27   15   19 ar
  28   15   41 1
  29   16   17 1
  30   16   20 1
  31   16   42 1
  32   17   21 1
  33   17   43 1
  34   19   44 1
  35   20   45 1
  36   20   46 1
  37   20   47 1
  38   21   22 ar
  39   21   26 ar
  40   22   23 ar
  41   22   27 1
  42   23   24 ar
  43   23   29 1
  44   24   25 ar
  45   25   26 ar
  46   25   32 1
  47   27   28 2
  48   28   29 1
  49   28   48 1
  50   29   49 1
  51   30   50 1
  52   30   51 1
  53   30   52 1
  54   31   33 1
  55   32   53 1
  56   32   54 1
  57   33   34 1
  58   33   55 1
  59   33   56 1
  60   34   35 3

#	End of record

