#	Name: ASD01813022
#	Creating user name:	WinNT
#	Creation time:	15. 06. 2019 19:29

#	Modifying user name:	WinNT
#	Modification time:	15. 06. 2019 19:29

#	Program:	/corina/corina34_cracker 3.40 0067  02.08.2006

@<TRIPOS>MOLECULE
ASD01813022
  49   52    0    0    0
SMALL
NO_CHARGES


@<TRIPOS>ATOM
   1 C1            -0.6634     1.4725     0.0040 C.2     
   2 C2            -0.4075     0.1540    -0.0325 C.2     
   3 N3            -1.4202    -0.7579     0.0642 N.pl3   
   4 C4            -2.7089    -0.4177     0.1860 C.2     
   5 C5            -3.0744     0.9134     0.2227 C.2     
   6 C6            -2.0082     1.9192     0.1320 C.2     
   7 O7            -2.2703     3.1113     0.1581 O.2     
   8 C8            -1.0779    -2.1820     0.0326 C.3     
   9 C9            -1.2003    -2.6968    -1.3785 C.ar    
  10 C10            0.4098     2.5251    -0.0779 C.3     
  11 C11            1.7041     1.9368    -0.6355 C.3     
  12 C12            2.0308     0.6649     0.1569 C.3     
  13 C13            0.9892    -0.3955    -0.1903 C.3     
  14 O14           -0.0324     3.5823    -0.9316 O.3     
  15 C15           -0.0830    -2.7670    -2.1853 C.ar    
  16 C16           -0.1975    -3.2437    -3.4898 C.ar    
  17 C17           -1.4408    -3.6470    -3.9719 C.ar    
  18 C18           -2.5519    -3.5724    -3.1562 C.ar    
  19 C19           -2.4315    -3.1035    -1.8607 C.ar    
  20 C20            1.0003    -3.3210    -4.3622 C.ar    
  21 C21            0.8858    -3.7977    -5.6665 C.ar    
  22 C22            2.0032    -3.8675    -6.4736 C.ar    
  23 C23            3.2352    -3.4658    -5.9897 C.ar    
  24 C24            3.3546    -2.9919    -4.6958 C.ar    
  25 C25            2.2427    -2.9119    -3.8820 C.ar    
  26 C26           -4.4851     1.3109     0.3531 C.2     
  27 O27           -5.3511     0.4616     0.4305 O.2     
  28 O28           -4.8170     2.6168     0.3867 O.3     
  29 H29           -3.4647    -1.1860     0.2553 H       
  30 H30           -0.0541    -2.3174     0.3812 H       
  31 H31           -1.7585    -2.7338     0.6810 H       
  32 H32            0.5975     2.9245     0.9188 H       
  33 H33            1.5722     1.6902    -1.6891 H       
  34 H34            2.5139     2.6578    -0.5243 H       
  35 H35            3.0240     0.3074    -0.1149 H       
  36 H36            1.9959     0.8783     1.2252 H       
  37 H37            1.1147    -1.2520     0.4720 H       
  38 H38            1.1340    -0.7164    -1.2219 H       
  39 H39            0.6081     4.2996    -1.0335 H       
  40 H40            0.8784    -2.4527    -1.8066 H       
  41 H41           -1.5353    -4.0168    -4.9822 H       
  42 H42           -3.5163    -3.8845    -3.5290 H       
  43 H43           -3.3033    -3.0472    -1.2257 H       
  44 H44           -0.0755    -4.1122    -6.0451 H       
  45 H45            1.9156    -4.2368    -7.4847 H       
  46 H46            4.1071    -3.5228    -6.6245 H       
  47 H47            4.3189    -2.6795    -4.3230 H       
  48 H48            2.3371    -2.5417    -2.8718 H       
  49 H49           -5.7565     2.8289     0.4733 H       
@<TRIPOS>BOND
   1    1    2 2
   2    1   10 1
   3    1    6 1
   4    2    3 1
   5    2   13 1
   6    3    4 1
   7    3    8 1
   8    4    5 2
   9    4   29 1
  10    5    6 1
  11    5   26 1
  12    6    7 2
  13    8    9 1
  14    8   30 1
  15    8   31 1
  16    9   15 ar
  17    9   19 ar
  18   10   11 1
  19   10   14 1
  20   10   32 1
  21   11   12 1
  22   11   33 1
  23   11   34 1
  24   12   13 1
  25   12   35 1
  26   12   36 1
  27   13   37 1
  28   13   38 1
  29   14   39 1
  30   15   16 ar
  31   15   40 1
  32   16   17 ar
  33   16   20 1
  34   17   18 ar
  35   17   41 1
  36   18   19 ar
  37   18   42 1
  38   19   43 1
  39   20   21 ar
  40   20   25 ar
  41   21   22 ar
  42   21   44 1
  43   22   23 ar
  44   22   45 1
  45   23   24 ar
  46   23   46 1
  47   24   25 ar
  48   24   47 1
  49   25   48 1
  50   26   27 2
  51   26   28 1
  52   28   49 1

#	End of record

