#	Name: ASD05740059
#	Creating user name:	WinNT
#	Creation time:	15. 06. 2019 21:02

#	Modifying user name:	WinNT
#	Modification time:	15. 06. 2019 21:02

#	Program:	/corina/corina34_cracker 3.40 0067  02.08.2006

@<TRIPOS>MOLECULE
ASD05740059
  51   54    0    0    0
SMALL
NO_CHARGES


@<TRIPOS>ATOM
   1 C1            -0.2976     1.4972     0.0117 C.3     
   2 C2             0.2272    -4.3704     1.9106 C.ar    
   3 C3             0.0057    -4.9534     0.6640 C.ar    
   4 C4             0.2160    -3.0131     2.0507 C.ar    
   5 C5            -0.0184    -2.2006     0.9352 C.ar    
   6 C6            -0.2422    -2.7833    -0.3261 C.ar    
   7 C7            -0.2279    -4.1643    -0.4506 C.ar    
   8 C8            -0.0361    -0.7414     1.0557 C.2     
   9 C9            -0.2695    -0.0077    -0.0636 C.2     
  10 C10           -0.4858    -0.6579    -1.2959 C.2     
  11 O11           -0.4683    -1.9960    -1.3996 O.3     
  12 C12            1.0658     2.0426    -0.3270 C.2     
  13 C13            2.1694     1.2276    -0.5231 C.2     
  14 O14           -0.6939     0.0117    -2.2917 O.2     
  15 O15            0.0194    -6.3051     0.5409 O.3     
  16 C16            1.1097    -6.8819    -0.0210 C.2     
  17 C17            1.3055     3.3544    -0.4678 C.2     
  18 S18            3.0000     3.6028    -0.8680 S.3     
  19 C19            3.2988     1.8705    -0.8160 C.2     
  20 N20            0.3559     4.3672    -0.3200 N.am    
  21 S21            0.7548     5.9346    -0.6756 S.o2    
  22 O22           -0.4260     6.6708    -0.3875 O.2     
  23 O23            1.9558     6.1635     0.0486 O.2     
  24 N24            2.1879    -6.2518    -0.3651 N.2     
  25 S25            1.2648    -8.5479    -0.3718 S.3     
  26 C26            2.8829    -8.2731    -1.0122 C.2     
  27 C27            3.1562    -6.9721    -0.9007 C.2     
  28 C28            1.0795     5.9253    -2.4603 C.3     
  29 C29            1.4631     7.3345    -2.9162 C.3     
  30 C30            0.1977    -0.0716     2.3853 C.3     
  31 C31           -1.1210     0.0032     3.1576 C.3     
  32 H32           -1.0297     1.8828    -0.6978 H       
  33 H33           -0.5719     1.8054     1.0206 H       
  34 H34            0.4040    -4.9972     2.7721 H       
  35 H35            0.3880    -2.5671     3.0191 H       
  36 H36           -0.3980    -4.6233    -1.4133 H       
  37 H37            2.1177     0.1517    -0.4441 H       
  38 H38            4.2530     1.3988    -0.9988 H       
  39 H39           -0.5375     4.1527    -0.0089 H       
  40 H40            3.5401    -9.0267    -1.4204 H       
  41 H41            4.0926    -6.5424    -1.2246 H       
  42 H42            1.8973     5.2380    -2.6772 H       
  43 H43            0.1836     5.6030    -2.9909 H       
  44 H44            1.6583     7.3288    -3.9886 H       
  45 H45            0.6454     8.0217    -2.6993 H       
  46 H46            2.3591     7.6567    -2.3856 H       
  47 H47            0.9230    -0.6478     2.9598 H       
  48 H48            0.5810     0.9357     2.2223 H       
  49 H49           -1.8463     0.5794     2.5831 H       
  50 H50           -1.5042    -1.0041     3.3206 H       
  51 H51           -0.9518     0.4876     4.1193 H       
@<TRIPOS>BOND
   1    1    9 1
   2    1   12 1
   3    1   32 1
   4    1   33 1
   5    2    3 ar
   6    2    4 ar
   7    2   34 1
   8    3   15 1
   9    3    7 ar
  10    4    5 ar
  11    4   35 1
  12    5    6 ar
  13    5    8 1
  14    6    7 ar
  15    6   11 1
  16    7   36 1
  17    8    9 2
  18    8   30 1
  19    9   10 1
  20   10   11 1
  21   10   14 2
  22   12   13 1
  23   12   17 2
  24   13   19 2
  25   13   37 1
  26   15   16 1
  27   16   25 1
  28   16   24 2
  29   17   18 1
  30   17   20 1
  31   18   19 1
  32   19   38 1
  33   20   21 am
  34   20   39 1
  35   21   22 2
  36   21   23 2
  37   21   28 1
  38   24   27 1
  39   25   26 1
  40   26   27 2
  41   26   40 1
  42   27   41 1
  43   28   29 1
  44   28   42 1
  45   28   43 1
  46   29   44 1
  47   29   45 1
  48   29   46 1
  49   30   31 1
  50   30   47 1
  51   30   48 1
  52   31   49 1
  53   31   50 1
  54   31   51 1

#	End of record

