#	Name: ASD01941083
#	Creating user name:	WinNT
#	Creation time:	15. 06. 2019 20:13

#	Modifying user name:	WinNT
#	Modification time:	15. 06. 2019 20:13

#	Program:	/corina/corina34_cracker 3.40 0067  02.08.2006

@<TRIPOS>MOLECULE
ASD01941083
  39   41    0    0    0
SMALL
NO_CHARGES


@<TRIPOS>ATOM
   1 C1            -0.0009     0.8870     0.4650 C.ar    
   2 C2            -0.6038     0.1810    -0.5691 C.ar    
   3 C3            -1.9829     0.1698    -0.6876 C.ar    
   4 C4            -2.7710     0.8615     0.2226 C.ar    
   5 C5            -2.1889     1.5656     1.2525 C.ar    
   6 C6            -0.7977     1.5818     1.3891 C.ar    
   7 F7            -2.5652    -0.5174    -1.6946 F       
   8 F8             0.1561    -0.4942    -1.4590 F       
   9 C9            -0.1705     2.3335     2.4900 C.2     
  10 O10            1.0289     2.2536     2.6749 O.2     
  11 N11           -0.9258     3.1098     3.2921 N.am    
  12 N12            1.3843     0.9005     0.5873 N.pl3   
  13 C13            2.0447    -0.1805     1.1806 C.ar    
  14 C14            3.4225    -0.1387     1.3668 C.ar    
  15 C15            4.0714    -1.2095     1.9536 C.ar    
  16 C16            3.3514    -2.3207     2.3543 C.ar    
  17 C17            1.9811    -2.3645     2.1695 C.ar    
  18 C18            1.3256    -1.2955     1.5900 C.ar    
  19 F19            4.1256     0.9463     0.9747 F       
  20 I20            4.3385    -3.9412     3.2423 I       
  21 C21           -0.7032     3.9123     4.5042 C.3     
  22 C22           -1.8767     4.7998     4.0666 C.3     
  23 C23           -2.3337     3.5323     3.3367 C.3     
  24 C24           -2.7952     5.2343     5.2104 C.3     
  25 O25           -1.5080     5.8714     3.1961 O.3     
  26 H26           -3.8462     0.8473     0.1219 H       
  27 H27           -2.8071     2.1017     1.9574 H       
  28 H28            1.8926     1.6596     0.2612 H       
  29 H29            5.1411    -1.1784     2.0989 H       
  30 H30            1.4223    -3.2338     2.4832 H       
  31 H31            0.2557    -1.3311     1.4467 H       
  32 H32           -0.8934     3.3655     5.4278 H       
  33 H33            0.2550     4.4318     4.5110 H       
  34 H34           -2.7616     3.7281     2.3534 H       
  35 H35           -2.9595     2.8815     3.9473 H       
  36 H36           -2.2206     5.8020     5.9422 H       
  37 H37           -3.5974     5.8577     4.8154 H       
  38 H38           -3.2222     4.3526     5.6885 H       
  39 H39           -2.2494     6.4285     2.9223 H       
@<TRIPOS>BOND
   1    1    2 ar
   2    1   12 1
   3    1    6 ar
   4    2    3 ar
   5    2    8 1
   6    3    4 ar
   7    3    7 1
   8    4    5 ar
   9    4   26 1
  10    5    6 ar
  11    5   27 1
  12    6    9 1
  13    9   10 2
  14    9   11 am
  15   11   21 1
  16   11   23 1
  17   12   13 1
  18   12   28 1
  19   13   14 ar
  20   13   18 ar
  21   14   15 ar
  22   14   19 1
  23   15   16 ar
  24   15   29 1
  25   16   17 ar
  26   16   20 1
  27   17   18 ar
  28   17   30 1
  29   18   31 1
  30   21   22 1
  31   21   32 1
  32   21   33 1
  33   22   23 1
  34   22   24 1
  35   22   25 1
  36   23   34 1
  37   23   35 1
  38   24   36 1
  39   24   37 1
  40   24   38 1
  41   25   39 1

#	End of record

