#	Name: ASD01841036
#	Creating user name:	WinNT
#	Creation time:	15. 06. 2019 19:38

#	Modifying user name:	WinNT
#	Modification time:	15. 06. 2019 19:38

#	Program:	/corina/corina34_cracker 3.40 0067  02.08.2006

@<TRIPOS>MOLECULE
ASD01841036
  34   36    0    0    0
SMALL
NO_CHARGES


@<TRIPOS>ATOM
   1 C1            -0.0180     1.4769     0.0102 C.2     
   2 C2             0.0021    -0.0041     0.0020 C.ar    
   3 O3             1.0259     2.0987     0.0035 O.2     
   4 N4            -1.1942     2.1348     0.0193 N.am    
   5 S5            -2.6698     4.5038     0.0392 S.3     
   6 C6            -1.2130     3.5197     0.0269 C.2     
   7 N7            -0.1661     4.2691     0.0260 N.2     
   8 C8            -0.3466     5.6051     0.0342 C.ar    
   9 C9            -1.6946     5.9714     0.0425 C.ar    
  10 C10           -2.0608     7.3164     0.0507 C.ar    
  11 C11           -1.0962     8.2990     0.0506 C.ar    
  12 C12            0.2468     7.9531     0.0423 C.ar    
  13 C13            0.6285     6.6305     0.0351 C.ar    
  14 C14           -3.5190     7.6968     0.0592 C.3     
  15 O15            1.9490     6.3078     0.0275 O.3     
  16 C16            2.8815     7.3906     0.0290 C.3     
  17 N17           -1.1415    -0.6778     0.0093 N.ar    
  18 C18           -1.1676    -1.9928     0.0025 C.ar    
  19 C19            0.0068    -2.7279    -0.0122 C.ar    
  20 C20            1.2239    -2.0642    -0.0203 C.ar    
  21 C21            1.2212    -0.6784    -0.0190 C.ar    
  22 H22           -2.0276     1.6385     0.0206 H       
  23 H23           -1.3856     9.3395     0.0565 H       
  24 H24            0.9994     8.7278     0.0419 H       
  25 H25           -3.8658     7.7835     1.0889 H       
  26 H26           -3.6482     8.6521    -0.4495 H       
  27 H27           -4.0975     6.9298    -0.4557 H       
  28 H28            3.8973     6.9954     0.0224 H       
  29 H29            2.7252     8.0058    -0.8571 H       
  30 H30            2.7332     7.9966     0.9228 H       
  31 H31           -2.1175    -2.5067     0.0088 H       
  32 H32           -0.0256    -3.8074    -0.0170 H       
  33 H33            2.1531    -2.6147    -0.0317 H       
  34 H34            2.1510    -0.1289    -0.0251 H       
@<TRIPOS>BOND
   1    1    2 1
   2    1    3 2
   3    1    4 am
   4    2   17 ar
   5    2   21 ar
   6    4    6 1
   7    4   22 1
   8    5    6 1
   9    5    9 1
  10    6    7 2
  11    7    8 1
  12    8    9 ar
  13    8   13 ar
  14    9   10 ar
  15   10   11 ar
  16   10   14 1
  17   11   12 ar
  18   11   23 1
  19   12   13 ar
  20   12   24 1
  21   13   15 1
  22   14   25 1
  23   14   26 1
  24   14   27 1
  25   15   16 1
  26   16   28 1
  27   16   29 1
  28   16   30 1
  29   17   18 ar
  30   18   19 ar
  31   18   31 1
  32   19   20 ar
  33   19   32 1
  34   20   21 ar
  35   20   33 1
  36   21   34 1

#	End of record

