#	Name: ASD01903247
#	Creating user name:	WinNT
#	Creation time:	15. 06. 2019 19:54

#	Modifying user name:	WinNT
#	Modification time:	15. 06. 2019 19:54

#	Program:	/corina/corina34_cracker 3.40 0067  02.08.2006

@<TRIPOS>MOLECULE
ASD01903247
  35   38    0    0    0
SMALL
NO_CHARGES


@<TRIPOS>ATOM
   1 S1             0.0340     1.7816     0.6230 S.3     
   2 C2             0.0795     0.0311     0.8104 C.2     
   3 N3             1.2944    -0.3890     0.6332 N.2     
   4 C4             2.2135     0.5269     0.3611 C.2     
   5 C5             1.7667     1.7927     0.3021 C.2     
   6 N6            -1.0129    -0.7732     1.1026 N.pl3   
   7 C7            -2.2662    -0.2056     1.2707 C.ar    
   8 C8             3.6388     0.1778     0.1376 C.2     
   9 C9             4.1784    -1.1302     0.0562 C.2     
  10 N10            5.4730    -1.0202    -0.1488 N.2     
  11 N11            5.7980     0.3404    -0.2042 N.pl3   
  12 C12            4.6659     1.0562    -0.0326 C.2     
  13 N13           -3.2984    -0.9881     1.5494 N.ar    
  14 C14           -4.5075    -0.4785     1.7163 C.ar    
  15 C15           -4.6866     0.8908     1.5962 C.ar    
  16 C16           -3.5852     1.6800     1.3040 C.ar    
  17 N17           -2.4024     1.1071     1.1543 N.ar    
  18 C18            3.4184    -2.3976     0.1801 C.ar    
  19 C19            2.1919    -2.5432    -0.4659 C.ar    
  20 C20            1.4882    -3.7241    -0.3478 C.ar    
  21 C21            1.9991    -4.7643     0.4115 C.ar    
  22 C22            3.2179    -4.6241     1.0554 C.ar    
  23 C23            3.9311    -3.4488     0.9382 C.ar    
  24 F24            1.3065    -5.9188     0.5248 F       
  25 H25            2.3661     2.6664     0.0930 H       
  26 H26           -0.8995    -1.7327     1.1893 H       
  27 H27            6.6850     0.7067    -0.3455 H       
  28 H28            4.5894     2.1335    -0.0255 H       
  29 H29           -5.3451    -1.1215     1.9429 H       
  30 H30           -5.6631     1.3331     1.7272 H       
  31 H31           -3.6907     2.7501     1.2035 H       
  32 H32            1.7927    -1.7327    -1.0577 H       
  33 H33            0.5377    -3.8377    -0.8476 H       
  34 H34            3.6121    -5.4374     1.6465 H       
  35 H35            4.8811    -3.3404     1.4404 H       
@<TRIPOS>BOND
   1    1    2 1
   2    1    5 1
   3    2    3 2
   4    2    6 1
   5    3    4 1
   6    4    5 2
   7    4    8 1
   8    5   25 1
   9    6    7 1
  10    6   26 1
  11    7   13 ar
  12    7   17 ar
  13    8    9 1
  14    8   12 2
  15    9   10 2
  16    9   18 1
  17   10   11 1
  18   11   12 1
  19   11   27 1
  20   12   28 1
  21   13   14 ar
  22   14   15 ar
  23   14   29 1
  24   15   16 ar
  25   15   30 1
  26   16   17 ar
  27   16   31 1
  28   18   19 ar
  29   18   23 ar
  30   19   20 ar
  31   19   32 1
  32   20   21 ar
  33   20   33 1
  34   21   22 ar
  35   21   24 1
  36   22   23 ar
  37   22   34 1
  38   23   35 1

#	End of record

