#	Name: ASD03330542
#	Creating user name:	WinNT
#	Creation time:	15. 06. 2019 20:37

#	Modifying user name:	WinNT
#	Modification time:	15. 06. 2019 20:37

#	Program:	/corina/corina34_cracker 3.40 0067  02.08.2006

@<TRIPOS>MOLECULE
ASD03330542
  63   65    0    0    0
SMALL
NO_CHARGES


@<TRIPOS>ATOM
   1 C1            -0.3253     1.1651     0.8384 C.2     
   2 N2            -0.3562    -0.1683     1.0708 N.pl3   
   3 C3             0.9801     1.5517     0.8876 C.2     
   4 N4             1.7261     0.4522     1.1307 N.2     
   5 C5             0.9316    -0.5870     1.2365 C.2     
   6 C6             1.3608    -1.9797     1.4921 C.ar    
   7 C7             1.4874     2.9234     0.7072 C.2     
   8 O8             0.7119     3.8352     0.4914 O.2     
   9 C9             3.3152     4.5314     0.6019 C.3     
  10 N10            2.8108     3.1677     0.7813 N.am    
  11 C11            3.4949     4.8164    -0.8905 C.3     
  12 C12            2.1295     4.8013    -1.5807 C.3     
  13 C13            4.1433     6.1902    -1.0729 C.3     
  14 C14            4.3917     3.7429    -1.5105 C.3     
  15 C15            4.6413     4.6728     1.3036 C.2     
  16 N16            5.1777     5.8950     1.4907 N.am    
  17 O17            5.2259     3.6869     1.6999 O.2     
  18 C18            6.4997     6.0281     2.1079 C.3     
  19 C19           -1.5670    -0.9910     1.1419 C.3     
  20 C20           -2.4705    -0.6605    -0.0501 C.3     
  21 C21           -3.3829     0.5096     0.3041 C.3     
  22 N22           -2.7070     1.4505     1.1998 N.3     
  23 C23           -1.5211     2.0386     0.5599 C.3     
  24 C24           -3.6307     2.4964     1.6589 C.3     
  25 C25            0.5139    -2.8615     2.1641 C.ar    
  26 C26            0.9199    -4.1589     2.3995 C.ar    
  27 C27            2.1640    -4.5861     1.9706 C.ar    
  28 C28            3.0086    -3.7164     1.3041 C.ar    
  29 C29            2.6117    -2.4182     1.0572 C.ar    
  30 C30            2.6011    -6.0045     2.2311 C.3     
  31 F31            2.2115    -6.8166     1.1606 F       
  32 F32            3.9930    -6.0463     2.3656 F       
  33 F33            2.0047    -6.4676     3.4088 F       
  34 H34            2.6032     5.2405     1.0241 H       
  35 H35            3.4293     2.4405     0.9533 H       
  36 H36            1.4906     5.5660    -1.1391 H       
  37 H37            2.2576     5.0044    -2.6439 H       
  38 H38            1.6676     3.8226    -1.4508 H       
  39 H39            5.1018     6.2113    -0.5543 H       
  40 H40            4.3004     6.3798    -2.1347 H       
  41 H41            3.4896     6.9583    -0.6595 H       
  42 H42            3.9298     2.7642    -1.3806 H       
  43 H43            4.5197     3.9460    -2.5737 H       
  44 H44            5.3644     3.7538    -1.0188 H       
  45 H45            4.6885     6.6865     1.2167 H       
  46 H46            6.7644     7.0833     2.1758 H       
  47 H47            6.4795     5.5936     3.1073 H       
  48 H48            7.2388     5.5064     1.4998 H       
  49 H49           -1.2931    -2.0456     1.1098 H       
  50 H50           -2.0971    -0.7795     2.0705 H       
  51 H51           -1.8546    -0.3929    -0.9087 H       
  52 H52           -3.0773    -1.5314    -0.2975 H       
  53 H53           -3.6699     1.0291    -0.6102 H       
  54 H54           -4.2788     0.1291     0.7947 H       
  55 H55           -1.3459     3.0358     0.9639 H       
  56 H56           -1.6822     2.1035    -0.5162 H       
  57 H57           -4.4611     2.0378     2.1958 H       
  58 H58           -3.1031     3.1815     2.3225 H       
  59 H59           -4.0135     3.0461     0.7990 H       
  60 H60           -0.4574    -2.5291     2.4997 H       
  61 H61            0.2654    -4.8424     2.9199 H       
  62 H62            3.9788    -4.0556     0.9725 H       
  63 H63            3.2720    -1.7402     0.5368 H       
@<TRIPOS>BOND
   1    1    2 1
   2    1    3 2
   3    1   23 1
   4    2   19 1
   5    2    5 1
   6    3    4 1
   7    3    7 1
   8    4    5 2
   9    5    6 1
  10    6   25 ar
  11    6   29 ar
  12    7    8 2
  13    7   10 am
  14    9   10 1
  15    9   11 1
  16    9   15 1
  17    9   34 1
  18   10   35 1
  19   11   12 1
  20   11   13 1
  21   11   14 1
  22   12   36 1
  23   12   37 1
  24   12   38 1
  25   13   39 1
  26   13   40 1
  27   13   41 1
  28   14   42 1
  29   14   43 1
  30   14   44 1
  31   15   16 am
  32   15   17 2
  33   16   18 1
  34   16   45 1
  35   18   46 1
  36   18   47 1
  37   18   48 1
  38   19   20 1
  39   19   49 1
  40   19   50 1
  41   20   21 1
  42   20   51 1
  43   20   52 1
  44   21   22 1
  45   21   53 1
  46   21   54 1
  47   22   23 1
  48   22   24 1
  49   23   55 1
  50   23   56 1
  51   24   57 1
  52   24   58 1
  53   24   59 1
  54   25   26 ar
  55   25   60 1
  56   26   27 ar
  57   26   61 1
  58   27   28 ar
  59   27   30 1
  60   28   29 ar
  61   28   62 1
  62   29   63 1
  63   30   31 1
  64   30   32 1
  65   30   33 1

#	End of record

