#	Name: ASD00310159
#	Creating user name:	WinNT
#	Creation time:	15. 06. 2019 18:33

#	Modifying user name:	WinNT
#	Modification time:	15. 06. 2019 18:33

#	Program:	/corina/corina34_cracker 3.40 0067  02.08.2006

@<TRIPOS>MOLECULE
ASD00310159
  38   41    0    0    0
SMALL
NO_CHARGES


@<TRIPOS>ATOM
   1 N1            -0.0169     1.3943     0.0097 N.pl3   
   2 N2             0.0021    -0.0041     0.0020 N.2     
   3 C3             1.2313    -0.4351    -0.0120 C.2     
   4 C4             2.1118     0.7299    -0.0142 C.ar    
   5 C5             3.4999     0.8952    -0.0272 C.ar    
   6 C6             4.0337     2.1740    -0.0261 C.ar    
   7 C7             3.1875     3.2911    -0.0116 C.ar    
   8 C8             1.8319     3.1372     0.0012 C.ar    
   9 C9             1.2722     1.8608    -0.0001 C.ar    
  10 C10            5.5054     2.3611    -0.0399 C.ar    
  11 C11            6.0907     3.2232    -0.9657 C.ar    
  12 C12            7.4585     3.3956    -0.9769 C.ar    
  13 C13            8.2538     2.7105    -0.0656 C.ar    
  14 C14            7.6722     1.8504     0.8585 C.ar    
  15 C15            6.3042     1.6795     0.8768 C.ar    
  16 N16            9.6388     2.8862    -0.0789 N.3     
  17 C17           10.2832     2.0722     0.9621 C.3     
  18 C18           11.8014     2.2486     0.8733 C.3     
  19 O19           12.1229     3.6368     0.9951 O.3     
  20 C20           11.5126     4.4589    -0.0033 C.3     
  21 C21            9.9914     4.3050     0.0765 C.3     
  22 I22            1.8366    -2.4407    -0.0275 I       
  23 Cl23           3.8712     4.8868    -0.0092 Cl      
  24 H24           -0.8147     1.9459     0.0166 H       
  25 H25            4.1508     0.0335    -0.0377 H       
  26 H26            1.1911     4.0065     0.0123 H       
  27 H27            5.4732     3.7554    -1.6741 H       
  28 H28            7.9125     4.0632    -1.6943 H       
  29 H29            8.2919     1.3190     1.5657 H       
  30 H30            5.8522     1.0145     1.5979 H       
  31 H31            9.9360     2.3952     1.9435 H       
  32 H32           10.0293     1.0228     0.8126 H       
  33 H33           12.2801     1.6920     1.6790 H       
  34 H34           12.1555     1.8759    -0.0878 H       
  35 H35           11.7824     5.5009     0.1683 H       
  36 H36           11.8583     4.1505    -0.9900 H       
  37 H37            9.5246     4.8853    -0.7193 H       
  38 H38            9.6396     4.6636     1.0438 H       
@<TRIPOS>BOND
   1    1    2 1
   2    1    9 1
   3    1   24 1
   4    2    3 2
   5    3    4 1
   6    3   22 1
   7    4    5 ar
   8    4    9 ar
   9    5    6 ar
  10    5   25 1
  11    6    7 ar
  12    6   10 1
  13    7    8 ar
  14    7   23 1
  15    8    9 ar
  16    8   26 1
  17   10   11 ar
  18   10   15 ar
  19   11   12 ar
  20   11   27 1
  21   12   13 ar
  22   12   28 1
  23   13   14 ar
  24   13   16 1
  25   14   15 ar
  26   14   29 1
  27   15   30 1
  28   16   17 1
  29   16   21 1
  30   17   18 1
  31   17   31 1
  32   17   32 1
  33   18   19 1
  34   18   33 1
  35   18   34 1
  36   19   20 1
  37   20   21 1
  38   20   35 1
  39   20   36 1
  40   21   37 1
  41   21   38 1

#	End of record

