#	Name: ASD01152463
#	Creating user name:	WinNT
#	Creation time:	15. 06. 2019 19:05

#	Modifying user name:	WinNT
#	Modification time:	15. 06. 2019 19:05

#	Program:	/corina/corina34_cracker 3.40 0067  02.08.2006

@<TRIPOS>MOLECULE
ASD01152463
  50   52    0    0    0
SMALL
NO_CHARGES


@<TRIPOS>ATOM
   1 C1            -0.5957     1.2192     1.1044 C.2     
   2 N2            -0.4543    -0.0787     1.0617 N.2     
   3 N3            -1.5431    -0.9379     1.2085 N.am    
   4 C4            -2.8141    -0.5034     1.1895 C.2     
   5 C5            -3.1202     0.9437     0.8827 C.3     
   6 C6            -1.9366     1.7740     1.3438 C.2     
   7 C7            -3.3288     1.1212    -0.6226 C.3     
   8 O8            -2.0913     2.8519     1.8800 O.2     
   9 C9            -1.3021    -2.3060     1.3818 C.ar    
  10 O10           -3.7197    -1.2764     1.4192 O.2     
  11 C11           -3.7591     2.5374    -0.9065 C.ar    
  12 C12           -0.3819    -2.7345     2.3284 C.ar    
  13 C13           -1.9883    -3.2358     0.6105 C.ar    
  14 C14           -1.7519    -4.5863     0.7808 C.ar    
  15 C15           -0.8319    -5.0170     1.7199 C.ar    
  16 C16           -0.1457    -4.0907     2.4981 C.ar    
  17 C17           -2.8265     3.4758    -1.3051 C.ar    
  18 C18           -3.2185     4.7756    -1.5662 C.ar    
  19 C19           -4.5469     5.1411    -1.4295 C.ar    
  20 C20           -5.4854     4.2034    -1.0305 C.ar    
  21 C21           -5.0920     2.8970    -0.7731 C.ar    
  22 F22           -0.6035    -6.3384     1.8847 F       
  23 F23           -6.7819     4.5585    -0.8961 F       
  24 F24           -4.9277     6.4119    -1.6847 F       
  25 O25            0.4746     2.0395     0.9367 O.3     
  26 C26            1.7412     1.4162     0.7151 C.3     
  27 N27            0.7818    -4.5267     3.4524 N.am    
  28 C28            1.0297    -3.7755     4.5436 C.2     
  29 O29            0.5207    -2.6801     4.6542 O.2     
  30 C30            1.9393    -4.2965     5.6263 C.3     
  31 O31           -6.0103     1.9740    -0.3817 O.3     
  32 C32           -6.6875     1.2545    -1.4141 C.3     
  33 H33           -4.0171     1.2530     1.4194 H       
  34 H34           -2.3955     0.9132    -1.1458 H       
  35 H35           -4.0996     0.4315    -0.9664 H       
  36 H36            0.1496    -2.0132     2.9314 H       
  37 H37           -2.7076    -2.9025    -0.1229 H       
  38 H38           -2.2866    -5.3071     0.1799 H       
  39 H39           -1.7896     3.1935    -1.4126 H       
  40 H40           -2.4873     5.5072    -1.8770 H       
  41 H41            2.5076     2.1824     0.5977 H       
  42 H42            1.9884     0.7827     1.5669 H       
  43 H43            1.6939     0.8082    -0.1883 H       
  44 H44            1.2458    -5.3694     3.3281 H       
  45 H45            2.2984    -5.2887     5.3529 H       
  46 H46            2.7878    -3.6225     5.7435 H       
  47 H47            1.3895    -4.3552     6.5657 H       
  48 H48           -5.9697     0.6448    -1.9629 H       
  49 H49           -7.4467     0.6106    -0.9702 H       
  50 H50           -7.1625     1.9592    -2.0966 H       
@<TRIPOS>BOND
   1    1    2 2
   2    1   25 1
   3    1    6 1
   4    2    3 1
   5    3    4 am
   6    3    9 1
   7    4    5 1
   8    4   10 2
   9    5    6 1
  10    5    7 1
  11    5   33 1
  12    6    8 2
  13    7   11 1
  14    7   34 1
  15    7   35 1
  16    9   12 ar
  17    9   13 ar
  18   11   17 ar
  19   11   21 ar
  20   12   16 ar
  21   12   36 1
  22   13   14 ar
  23   13   37 1
  24   14   15 ar
  25   14   38 1
  26   15   16 ar
  27   15   22 1
  28   16   27 1
  29   17   18 ar
  30   17   39 1
  31   18   19 ar
  32   18   40 1
  33   19   20 ar
  34   19   24 1
  35   20   21 ar
  36   20   23 1
  37   21   31 1
  38   25   26 1
  39   26   41 1
  40   26   42 1
  41   26   43 1
  42   27   28 am
  43   27   44 1
  44   28   29 2
  45   28   30 1
  46   30   45 1
  47   30   46 1
  48   30   47 1
  49   31   32 1
  50   32   48 1
  51   32   49 1
  52   32   50 1

#	End of record

