#	Name: ASD01870073
#	Creating user name:	WinNT
#	Creation time:	15. 06. 2019 19:38

#	Modifying user name:	WinNT
#	Modification time:	15. 06. 2019 19:38

#	Program:	/corina/corina34_cracker 3.40 0067  02.08.2006

@<TRIPOS>MOLECULE
ASD01870073
  55   59    0    0    0
SMALL
NO_CHARGES


@<TRIPOS>ATOM
   1 C1             0.0117     1.2649    -0.3707 C.ar    
   2 C2            -0.0277     0.1139     0.3927 C.ar    
   3 N3             1.0646    -0.3886     0.9235 N.ar    
   4 C4             2.2672     0.1761     0.7591 C.ar    
   5 C5             2.3942     1.3369     0.0040 C.ar    
   6 C6             1.2287     1.8991    -0.5791 C.ar    
   7 S7             3.8350    -0.3263     1.3750 S.3     
   8 C8             4.6626     1.0233     0.6184 C.2     
   9 C9             3.7755     1.8203    -0.0736 C.2     
  10 C10            6.0379     1.3783     0.6251 C.2     
  11 N11            6.4263     2.4813    -0.0452 N.am    
  12 C12            5.5079     3.2305    -0.7107 C.2     
  13 N13            4.2488     2.9178    -0.7251 N.2     
  14 N14            1.3042     3.0562    -1.3413 N.3     
  15 C15            7.7758     2.8557    -0.0555 C.ar    
  16 O16            6.8522     0.6979     1.2265 O.2     
  17 C17            8.6217     2.3820    -1.0497 C.ar    
  18 C18            9.9519     2.7534    -1.0573 C.ar    
  19 C19           10.4418     3.5957    -0.0761 C.ar    
  20 C20            9.6021     4.0687     0.9156 C.ar    
  21 C21            8.2695     3.7059     0.9252 C.ar    
  22 C22           11.8939     3.9985    -0.0872 C.3     
  23 C23           12.0622     5.2773    -0.9102 C.3     
  24 C24            0.9174     2.7953    -2.7342 C.3     
  25 C25            0.4827     4.1252    -0.7581 C.3     
  26 C26            0.7813     5.4450    -1.4722 C.3     
  27 C27           -0.0615     6.5418    -0.8739 C.ar    
  28 C28            0.5474     7.6834    -0.3888 C.ar    
  29 C29           -0.2372     8.6867     0.1597 C.ar    
  30 C30           -1.6107     8.5027     0.1996 C.ar    
  31 C31           -2.1486     7.3337    -0.3051 C.ar    
  32 N32           -1.3721     6.4031    -0.8244 N.ar    
  33 H33           -0.8935     1.6641    -0.8040 H       
  34 H34           -0.9732    -0.3816     0.5565 H       
  35 H35            5.8356     4.1115    -1.2425 H       
  36 H36            8.2399     1.7236    -1.8159 H       
  37 H37           10.6103     2.3853    -1.8303 H       
  38 H38            9.9878     4.7261     1.6808 H       
  39 H39            7.6141     4.0760     1.6997 H       
  40 H40           12.2292     4.1772     0.9345 H       
  41 H41           12.4891     3.2002    -0.5305 H       
  42 H42           11.7269     5.0986    -1.9318 H       
  43 H43           11.4670     6.0756    -0.4669 H       
  44 H44           13.1125     5.5686    -0.9182 H       
  45 H45           -0.1070     2.4239    -2.7633 H       
  46 H46            0.9855     3.7187    -3.3093 H       
  47 H47            1.5865     2.0496    -3.1636 H       
  48 H48           -0.5724     3.8785    -0.8770 H       
  49 H49            0.7153     4.2250     0.3021 H       
  50 H50            1.8364     5.6918    -1.3533 H       
  51 H51            0.5487     5.3453    -2.5324 H       
  52 H52            1.6208     7.7928    -0.4359 H       
  53 H53            0.2111     9.5897     0.5469 H       
  54 H54           -2.2522     9.2630     0.6200 H       
  55 H55           -3.2176     7.1825    -0.2774 H       
@<TRIPOS>BOND
   1    1    2 ar
   2    1    6 ar
   3    1   33 1
   4    2    3 ar
   5    2   34 1
   6    3    4 ar
   7    4    5 ar
   8    4    7 1
   9    5    6 ar
  10    5    9 1
  11    6   14 1
  12    7    8 1
  13    8    9 2
  14    8   10 1
  15    9   13 1
  16   10   11 am
  17   10   16 2
  18   11   12 1
  19   11   15 1
  20   12   13 2
  21   12   35 1
  22   14   24 1
  23   14   25 1
  24   15   17 ar
  25   15   21 ar
  26   17   18 ar
  27   17   36 1
  28   18   19 ar
  29   18   37 1
  30   19   20 ar
  31   19   22 1
  32   20   21 ar
  33   20   38 1
  34   21   39 1
  35   22   23 1
  36   22   40 1
  37   22   41 1
  38   23   42 1
  39   23   43 1
  40   23   44 1
  41   24   45 1
  42   24   46 1
  43   24   47 1
  44   25   26 1
  45   25   48 1
  46   25   49 1
  47   26   27 1
  48   26   50 1
  49   26   51 1
  50   27   28 ar
  51   27   32 ar
  52   28   29 ar
  53   28   52 1
  54   29   30 ar
  55   29   53 1
  56   30   31 ar
  57   30   54 1
  58   31   32 ar
  59   31   55 1

#	End of record

