#	Name: ASD03110001
#	Creating user name:	WinNT
#	Creation time:	15. 06. 2019 20:33

#	Modifying user name:	WinNT
#	Modification time:	15. 06. 2019 20:33

#	Program:	/corina/corina34_cracker 3.40 0067  02.08.2006

@<TRIPOS>MOLECULE
ASD03110001
  30   32    0    0    0
SMALL
NO_CHARGES


@<TRIPOS>ATOM
   1 C1            -0.0167     1.3837     0.0096 C.ar    
   2 C2             0.0021    -0.0041     0.0020 C.ar    
   3 C3             1.2033    -0.6765    -0.0126 C.ar    
   4 C4             2.4013     0.0355    -0.0198 C.ar    
   5 C5             2.3914     1.4362    -0.0127 C.ar    
   6 C6             1.1424     2.0967     0.0024 C.ar    
   7 S7             4.0773    -0.5072    -0.0386 S.3     
   8 C8             4.6286     1.1626    -0.0355 C.2     
   9 N9             3.6194     1.9666    -0.0218 N.2     
  10 C10            6.0455     1.5849    -0.0466 C.ar    
  11 C11            6.3692     2.9434    -0.0429 C.ar    
  12 C12            7.0600     0.6252    -0.0549 C.ar    
  13 C13            8.3793     1.0181    -0.0651 C.ar    
  14 C14            8.7033     2.3770    -0.0672 C.ar    
  15 C15            7.6884     3.3368    -0.0531 C.ar    
  16 C16           10.1196     2.7990    -0.0777 C.2     
  17 O17           11.0027     1.9637    -0.0846 O.2     
  18 N18           10.4320     4.1101    -0.0798 N.am    
  19 N19           11.7411     4.5002    -0.0895 N.3     
  20 H20           -0.9630     1.9042     0.0169 H       
  21 H21           -0.9259    -0.5566     0.0079 H       
  22 H22            1.2173    -1.7564    -0.0182 H       
  23 H23            1.1073     3.1761     0.0082 H       
  24 H24            5.5845     3.6854    -0.0323 H       
  25 H25            6.8095    -0.4254    -0.0529 H       
  26 H26            9.1638     0.2759    -0.0712 H       
  27 H27            7.9387     4.3874    -0.0547 H       
  28 H28            9.7274     4.7766    -0.0743 H       
  29 H29           12.2320     4.0995    -0.8746 H       
  30 H30           11.8186     5.5062    -0.0898 H       
@<TRIPOS>BOND
   1    1    2 ar
   2    1    6 ar
   3    1   20 1
   4    2    3 ar
   5    2   21 1
   6    3    4 ar
   7    3   22 1
   8    4    5 ar
   9    4    7 1
  10    5    6 ar
  11    5    9 1
  12    6   23 1
  13    7    8 1
  14    8    9 2
  15    8   10 1
  16   10   11 ar
  17   10   12 ar
  18   11   15 ar
  19   11   24 1
  20   12   13 ar
  21   12   25 1
  22   13   14 ar
  23   13   26 1
  24   14   15 ar
  25   14   16 1
  26   15   27 1
  27   16   17 2
  28   16   18 am
  29   18   19 1
  30   18   28 1
  31   19   29 1
  32   19   30 1

#	End of record

