#	Name: ASD01916991
#	Creating user name:	WinNT
#	Creation time:	15. 06. 2019 20:08

#	Modifying user name:	WinNT
#	Modification time:	15. 06. 2019 20:08

#	Program:	/corina/corina34_cracker 3.40 0067  02.08.2006

@<TRIPOS>MOLECULE
ASD01916991
  64   68    0    0    0
SMALL
NO_CHARGES


@<TRIPOS>ATOM
   1 C1             0.0106     1.3079     0.1823 C.ar    
   2 C2             0.0564    -0.0535     0.4505 C.ar    
   3 C3             1.2793    -0.6945     0.5953 C.ar    
   4 C4             2.4526     0.0198     0.4725 C.ar    
   5 C5             2.4098     1.3865     0.2028 C.ar    
   6 C6             1.1807     2.0274     0.0585 C.ar    
   7 C7             3.6704     2.1579     0.0706 C.2     
   8 N8             4.9049     1.6559     0.1882 N.2     
   9 N9             3.7553     3.4453    -0.1868 N.2     
  10 N10            5.1221     3.7650    -0.2262 N.pl3   
  11 C11            5.7917     2.6133     0.0137 C.2     
  12 C12            7.2614     2.4579     0.0708 C.ar    
  13 C13            5.7077     5.0835    -0.4807 C.3     
  14 C14            5.8326     5.8370     0.8184 C.2     
  15 O15            5.4683     5.3232     1.8548 O.2     
  16 N16            6.3491     7.0818     0.8284 N.am    
  17 C17            6.4799     7.8347     2.0851 C.3     
  18 C18            7.9175     8.3542     2.1940 C.3     
  19 N19            8.2553     9.1088     0.9797 N.3     
  20 C20            8.2219     8.2473    -0.2096 C.3     
  21 C21            6.8025     7.7210    -0.4162 C.3     
  22 C22            9.4908     9.7326     1.1085 C.ar    
  23 C23            8.0747     3.5712     0.2876 C.ar    
  24 C24            9.9864    10.5035     0.0616 C.ar    
  25 N25           10.1831     9.5923     2.2283 N.ar    
  26 C26           11.3594    10.1679     2.3913 C.ar    
  27 C27           11.9130    10.9426     1.3921 C.ar    
  28 C28           11.2168    11.1188     0.2034 C.ar    
  29 O29           -1.0980    -0.7598     0.5720 O.3     
  30 C30           -0.9778    -2.1566     0.8483 C.3     
  31 C31            9.4439     3.4225     0.3401 C.ar    
  32 C32           10.0146     2.1669     0.1770 C.ar    
  33 C33            9.2085     1.0568    -0.0394 C.ar    
  34 C34            7.8381     1.1967    -0.0865 C.ar    
  35 O35           11.3644     2.0242     0.2289 O.3     
  36 C36           11.8845     0.7049     0.0532 C.3     
  37 H37           -0.9421     1.8031     0.0661 H       
  38 H38            1.3119    -1.7535     0.8046 H       
  39 H39            3.4036    -0.4793     0.5856 H       
  40 H40            1.1445     3.0863    -0.1509 H       
  41 H41            6.6948     4.9626    -0.9270 H       
  42 H42            5.0660     5.6404    -1.1635 H       
  43 H43            5.7861     8.6753     2.0823 H       
  44 H44            6.2625     7.1796     2.9288 H       
  45 H45            8.0038     9.0062     3.0632 H       
  46 H46            8.6014     7.5122     2.3010 H       
  47 H47            8.5291     8.8217    -1.0836 H       
  48 H48            8.9016     7.4068    -0.0691 H       
  49 H49            6.7964     6.9927    -1.2271 H       
  50 H50            6.1367     8.5492    -0.6590 H       
  51 H51            7.6317     4.5481     0.4138 H       
  52 H52            9.4182    10.6194    -0.8495 H       
  53 H53           11.8957    10.0312     3.3187 H       
  54 H54           12.8760    11.4103     1.5348 H       
  55 H55           11.6285    11.7203    -0.5936 H       
  56 H56           -0.4222    -2.6395     0.0444 H       
  57 H57           -0.4484    -2.2964     1.7908 H       
  58 H58           -1.9711    -2.5995     0.9204 H       
  59 H59           10.0739     4.2836     0.5078 H       
  60 H60            9.6558     0.0819    -0.1661 H       
  61 H61            7.2119     0.3330    -0.2544 H       
  62 H62           11.4909     0.0524     0.8326 H       
  63 H63           11.5871     0.3242    -0.9239 H       
  64 H64           12.9723     0.7317     0.1170 H       
@<TRIPOS>BOND
   1    1    2 ar
   2    1    6 ar
   3    1   37 1
   4    2    3 ar
   5    2   29 1
   6    3    4 ar
   7    3   38 1
   8    4    5 ar
   9    4   39 1
  10    5    6 ar
  11    5    7 1
  12    6   40 1
  13    7    8 1
  14    7    9 2
  15    8   11 2
  16    9   10 1
  17   10   11 1
  18   10   13 1
  19   11   12 1
  20   12   23 ar
  21   12   34 ar
  22   13   14 1
  23   13   41 1
  24   13   42 1
  25   14   15 2
  26   14   16 am
  27   16   17 1
  28   16   21 1
  29   17   18 1
  30   17   43 1
  31   17   44 1
  32   18   19 1
  33   18   45 1
  34   18   46 1
  35   19   20 1
  36   19   22 1
  37   20   21 1
  38   20   47 1
  39   20   48 1
  40   21   49 1
  41   21   50 1
  42   22   25 ar
  43   22   24 ar
  44   23   31 ar
  45   23   51 1
  46   24   28 ar
  47   24   52 1
  48   25   26 ar
  49   26   27 ar
  50   26   53 1
  51   27   28 ar
  52   27   54 1
  53   28   55 1
  54   29   30 1
  55   30   56 1
  56   30   57 1
  57   30   58 1
  58   31   32 ar
  59   31   59 1
  60   32   33 ar
  61   32   35 1
  62   33   34 ar
  63   33   60 1
  64   34   61 1
  65   35   36 1
  66   36   62 1
  67   36   63 1
  68   36   64 1

#	End of record

