#	Name: ASD01150675
#	Creating user name:	WinNT
#	Creation time:	15. 06. 2019 19:04

#	Modifying user name:	WinNT
#	Modification time:	15. 06. 2019 19:04

#	Program:	/corina/corina34_cracker 3.40 0067  02.08.2006

@<TRIPOS>MOLECULE
ASD01150675
  36   39    0    0    0
SMALL
NO_CHARGES


@<TRIPOS>ATOM
   1 C1            -0.0178     1.5022     0.0044 C.2     
   2 C2            -0.7724     1.3020     1.2934 C.3     
   3 C3             3.6765     3.5432     0.0111 C.ar    
   4 C4             2.5190     4.3090    -0.0794 C.ar    
   5 C5             1.2585     3.6482    -0.0850 C.ar    
   6 C6             1.2469     2.2383     0.0036 C.ar    
   7 C7             2.4695     1.5573     0.0914 C.ar    
   8 N8             3.6055     2.2066     0.0919 N.ar    
   9 C9             2.7937     5.7464    -0.1574 C.2     
  10 C10            4.0838     6.0494    -0.1284 C.2     
  11 S11            5.0798     4.6013     0.0035 S.3     
  12 C12            4.2799     7.5607    -0.2135 C.3     
  13 C13            2.9059     8.1581     0.1492 C.3     
  14 C14            1.9542     7.0192    -0.2668 C.3     
  15 C15            0.0059     4.4101    -0.1802 C.2     
  16 C16           -0.8766     4.3565    -1.2206 C.2     
  17 C17           -1.9702     5.1761    -1.0491 C.2     
  18 C18           -1.9816     5.8745     0.0902 C.2     
  19 S19           -0.6004     5.5311     1.0311 S.3     
  20 C20            2.4751     0.0534     0.1872 C.3     
  21 O21           -0.4565     1.0485    -1.0323 O.2     
  22 H22           -0.1897     1.7047     2.1219 H       
  23 H23           -1.7303     1.8193     1.2378 H       
  24 H24           -0.9432     0.2374     1.4530 H       
  25 H25            5.0357     7.8859     0.5014 H       
  26 H26            4.5642     7.8499    -1.2252 H       
  27 H27            2.8355     8.3551     1.2189 H       
  28 H28            2.7085     9.0622    -0.4268 H       
  29 H29            1.6161     7.1634    -1.2929 H       
  30 H30            1.1019     6.9707     0.4109 H       
  31 H31           -0.7313     3.7342    -2.0913 H       
  32 H32           -2.7603     5.2492    -1.7818 H       
  33 H33           -2.7635     6.5612     0.3791 H       
  34 H34            2.4217    -0.3746    -0.8138 H       
  35 H35            3.3926    -0.2762     0.6747 H       
  36 H36            1.6152    -0.2768     0.7699 H       
@<TRIPOS>BOND
   1    1    2 1
   2    1    6 1
   3    1   21 2
   4    2   22 1
   5    2   23 1
   6    2   24 1
   7    3    4 ar
   8    3    8 ar
   9    3   11 1
  10    4    5 ar
  11    4    9 1
  12    5    6 ar
  13    5   15 1
  14    6    7 ar
  15    7    8 ar
  16    7   20 1
  17    9   10 2
  18    9   14 1
  19   10   11 1
  20   10   12 1
  21   12   13 1
  22   12   25 1
  23   12   26 1
  24   13   14 1
  25   13   27 1
  26   13   28 1
  27   14   29 1
  28   14   30 1
  29   15   16 2
  30   15   19 1
  31   16   17 1
  32   16   31 1
  33   17   18 2
  34   17   32 1
  35   18   19 1
  36   18   33 1
  37   20   34 1
  38   20   35 1
  39   20   36 1

#	End of record

