#	Name: ASD01916353
#	Creating user name:	WinNT
#	Creation time:	15. 06. 2019 20:07

#	Modifying user name:	WinNT
#	Modification time:	15. 06. 2019 20:07

#	Program:	/corina/corina34_cracker 3.40 0067  02.08.2006

@<TRIPOS>MOLECULE
ASD01916353
  32   34    0    0    0
SMALL
NO_CHARGES


@<TRIPOS>ATOM
   1 C1            -0.0300     1.5470    -0.0172 C.3     
   2 C2            -0.0174     0.0129    -0.0301 C.3     
   3 C3             0.6147    -0.4804    -1.3295 C.3     
   4 C4             1.9760     0.1219    -1.5332 C.ar    
   5 C5             2.3512     1.3156    -0.9065 C.ar    
   6 C6             1.4122     2.0133    -0.0171 C.2     
   7 N7             2.8507    -0.4786    -2.3215 N.ar    
   8 C8             4.0569     0.0384    -2.5171 C.ar    
   9 N9             4.4454     1.1695    -1.9412 N.ar    
  10 C10            3.6330     1.8318    -1.1383 C.ar    
  11 N11            4.9380    -0.6228    -3.3473 N.pl3   
  12 C12            6.1701    -0.0422    -3.6638 C.ar    
  13 O13            1.7775     2.9284     0.6904 O.2     
  14 C14            7.2895    -0.8420    -3.8339 C.ar    
  15 C15            8.5173    -0.2591    -4.1501 C.ar    
  16 C16            8.6110     1.1265    -4.2932 C.ar    
  17 C17            7.4890     1.9159    -4.1216 C.ar    
  18 C18            6.2706     1.3359    -3.8132 C.ar    
  19 C19            9.6776    -1.0795    -4.3267 C.1     
  20 N20           10.5981    -1.7303    -4.4669 N.1     
  21 F21            7.5810     3.2567    -4.2599 F       
  22 H22           -0.5399     1.9207    -0.9051 H       
  23 H23           -0.5352     1.9057     0.8796 H       
  24 H24            0.5621    -0.3528     0.8176 H       
  25 H25           -1.0394    -0.3594     0.0410 H       
  26 H26            0.7060    -1.5660    -1.2929 H       
  27 H27           -0.0270    -0.2047    -2.1663 H       
  28 H28            3.9496     2.7523    -0.6704 H       
  29 H29            4.7028    -1.4905    -3.7117 H       
  30 H30            7.2117    -1.9134    -3.7217 H       
  31 H31            9.5595     1.5815    -4.5375 H       
  32 H32            5.3971     1.9569    -3.6802 H       
@<TRIPOS>BOND
   1    1    2 1
   2    1    6 1
   3    1   22 1
   4    1   23 1
   5    2    3 1
   6    2   24 1
   7    2   25 1
   8    3    4 1
   9    3   26 1
  10    3   27 1
  11    4    5 ar
  12    4    7 ar
  13    5    6 1
  14    5   10 ar
  15    6   13 2
  16    7    8 ar
  17    8    9 ar
  18    8   11 1
  19    9   10 ar
  20   10   28 1
  21   11   12 1
  22   11   29 1
  23   12   14 ar
  24   12   18 ar
  25   14   15 ar
  26   14   30 1
  27   15   16 ar
  28   15   19 1
  29   16   17 ar
  30   16   31 1
  31   17   18 ar
  32   17   21 1
  33   18   32 1
  34   19   20 3

#	End of record

