#	Name: ASD01152500
#	Creating user name:	WinNT
#	Creation time:	15. 06. 2019 19:05

#	Modifying user name:	WinNT
#	Modification time:	15. 06. 2019 19:05

#	Program:	/corina/corina34_cracker 3.40 0067  02.08.2006

@<TRIPOS>MOLECULE
ASD01152500
  52   55    0    0    0
SMALL
NO_CHARGES


@<TRIPOS>ATOM
   1 C1             0.1114     1.1571    -0.6959 C.2     
   2 N2             0.0189    -0.1436    -0.6175 N.2     
   3 N3            -1.1205    -0.7661    -0.1080 N.am    
   4 C4            -2.2615    -0.0993     0.1330 C.2     
   5 C5            -2.3924     1.3536    -0.2592 C.3     
   6 C6            -1.0084     1.9736    -0.2035 C.2     
   7 C7            -2.9557     1.4586    -1.6778 C.3     
   8 O8            -0.8358     3.0970     0.2224 O.2     
   9 C9            -1.0734    -2.1389     0.1623 C.ar    
  10 O10           -3.1907    -0.6664     0.6673 O.2     
  11 C11           -3.1985     2.9070    -2.0160 C.ar    
  12 C12           -0.0101    -2.6693     0.8797 C.ar    
  13 C13           -2.0939    -2.9703    -0.2824 C.ar    
  14 C14           -2.0490    -4.3251    -0.0160 C.ar    
  15 C15           -0.9884    -4.8582     0.6946 C.ar    
  16 C16            0.0334    -4.0297     1.1463 C.ar    
  17 C17           -2.1869     3.6519    -2.6091 C.ar    
  18 C18           -2.3838     4.9653    -2.9243 C.ar    
  19 C19           -3.6165     5.5660    -2.6469 C.ar    
  20 C20           -4.6409     4.8091    -2.0455 C.ar    
  21 C21           -4.4126     3.4698    -1.7405 C.ar    
  22 F22           -0.9477    -6.1834     0.9543 F       
  23 C23           -4.1587     6.9066    -2.8433 C.2     
  24 N24           -5.3811     6.9111    -2.3939 N.2     
  25 N25           -5.7152     5.6470    -1.8971 N.pl3   
  26 C26           -7.0063     5.2780    -1.3115 C.3     
  27 O27            1.2212     1.7435    -1.2163 O.3     
  28 C28            2.2637     0.8753    -1.6654 C.3     
  29 N29            1.1045    -4.5683     1.8702 N.am    
  30 C30            1.7680    -3.8044     2.7605 C.2     
  31 O31            1.4983    -2.6269     2.8693 O.2     
  32 C32            2.8451    -4.4133     3.6209 C.3     
  33 H33           -3.0529     1.8665     0.4399 H       
  34 H34           -2.2419     1.0353    -2.3844 H       
  35 H35           -3.8952     0.9092    -1.7373 H       
  36 H36            0.7820    -2.0238     1.2294 H       
  37 H37           -2.9234    -2.5568    -0.8368 H       
  38 H38           -2.8435    -4.9693    -0.3628 H       
  39 H39           -1.2355     3.1875    -2.8225 H       
  40 H40           -1.5923     5.5378    -3.3849 H       
  41 H41           -5.1906     2.8796    -1.2792 H       
  42 H42           -3.6389     7.7453    -3.2823 H       
  43 H43           -7.6696     4.9123    -2.0954 H       
  44 H44           -6.8575     4.4956    -0.5673 H       
  45 H45           -7.4526     6.1514    -0.8361 H       
  46 H46            1.8808     0.2239    -2.4511 H       
  47 H47            3.0888     1.4704    -2.0568 H       
  48 H48            2.6166     0.2693    -0.8309 H       
  49 H49            1.3688    -5.4911     1.7308 H       
  50 H50            2.9446    -5.4724     3.3831 H       
  51 H51            3.7917    -3.9076     3.4302 H       
  52 H52            2.5780    -4.3003     4.6716 H       
@<TRIPOS>BOND
   1    1    2 2
   2    1   27 1
   3    1    6 1
   4    2    3 1
   5    3    4 am
   6    3    9 1
   7    4    5 1
   8    4   10 2
   9    5    6 1
  10    5    7 1
  11    5   33 1
  12    6    8 2
  13    7   11 1
  14    7   34 1
  15    7   35 1
  16    9   12 ar
  17    9   13 ar
  18   11   17 ar
  19   11   21 ar
  20   12   16 ar
  21   12   36 1
  22   13   14 ar
  23   13   37 1
  24   14   15 ar
  25   14   38 1
  26   15   16 ar
  27   15   22 1
  28   16   29 1
  29   17   18 ar
  30   17   39 1
  31   18   19 ar
  32   18   40 1
  33   19   20 ar
  34   19   23 1
  35   20   21 ar
  36   20   25 1
  37   21   41 1
  38   23   24 2
  39   23   42 1
  40   24   25 1
  41   25   26 1
  42   26   43 1
  43   26   44 1
  44   26   45 1
  45   27   28 1
  46   28   46 1
  47   28   47 1
  48   28   48 1
  49   29   30 am
  50   29   49 1
  51   30   31 2
  52   30   32 1
  53   32   50 1
  54   32   51 1
  55   32   52 1

#	End of record

