#	Name: ASD01912876
#	Creating user name:	WinNT
#	Creation time:	15. 06. 2019 20:00

#	Modifying user name:	WinNT
#	Modification time:	15. 06. 2019 20:00

#	Program:	/corina/corina34_cracker 3.40 0067  02.08.2006

@<TRIPOS>MOLECULE
ASD01912876
  41   44    0    0    0
SMALL
NO_CHARGES


@<TRIPOS>ATOM
   1 C1            -0.0165     1.3669     0.0096 C.2     
   2 N2             0.0021    -0.0041     0.0020 N.pl3   
   3 C3            -1.2024    -0.6923     0.0094 C.2     
   4 C4            -2.3629    -0.0504     0.0235 C.2     
   5 N5            -2.4359     1.3310     0.0312 N.am    
   6 C6            -1.3019     2.0669     0.0309 C.2     
   7 C7             1.3014     1.7836    -0.0008 C.2     
   8 C8             2.0550     0.6110    -0.0143 C.2     
   9 N9             1.2244    -0.4045    -0.0118 N.2     
  10 O10           -1.3487     3.2837     0.0376 O.2     
  11 C11           -3.6758     1.9626     0.0451 C.ar    
  12 C12            3.5594     0.5249    -0.0295 C.3     
  13 O13            4.1120     1.8427    -0.0282 O.3     
  14 C14            5.4677     1.9435    -0.0410 C.ar    
  15 C15            6.0709     3.1925    -0.0405 C.ar    
  16 C16            7.4487     3.2935    -0.0536 C.ar    
  17 C17            8.2273     2.1487    -0.0677 C.ar    
  18 C18            7.6264     0.9013    -0.0682 C.ar    
  19 C19            6.2490     0.7974    -0.0489 C.ar    
  20 N20           -4.7753     1.2250     0.0509 N.ar    
  21 N21           -3.7254     3.2848     0.0577 N.ar    
  22 C22           -4.8868     3.9224     0.0712 C.ar    
  23 C23           -6.0601     3.1890     0.0721 C.ar    
  24 C24           -5.9732     1.7954     0.0642 C.ar    
  25 F25            9.5745     2.2489    -0.0814 F       
  26 F26           -7.2615     3.8067     0.0860 F       
  27 O27           -7.0964     1.0364     0.0642 O.3     
  28 C28           -6.9210    -0.3818     0.0559 C.3     
  29 H29           -1.1950    -1.7722     0.0031 H       
  30 H30           -3.2784    -0.6233     0.0289 H       
  31 H31            1.6684     2.7994     0.0006 H       
  32 H32            3.9015    -0.0135     0.8543 H       
  33 H33            3.8840    -0.0043    -0.9255 H       
  34 H34            5.4638     4.0857    -0.0302 H       
  35 H35            7.9186     4.2659    -0.0532 H       
  36 H36            8.2349     0.0091    -0.0796 H       
  37 H37            5.7805    -0.1757    -0.0490 H       
  38 H38           -4.9173     5.0019     0.0818 H       
  39 H39           -6.3698    -0.6745    -0.8378 H       
  40 H40           -6.3632    -0.6842     0.9421 H       
  41 H41           -7.8963    -0.8686     0.0568 H       
@<TRIPOS>BOND
   1    1    2 1
   2    1    7 2
   3    1    6 1
   4    2    3 1
   5    2    9 1
   6    3    4 2
   7    3   29 1
   8    4    5 1
   9    4   30 1
  10    5    6 am
  11    5   11 1
  12    6   10 2
  13    7    8 1
  14    7   31 1
  15    8    9 2
  16    8   12 1
  17   11   20 ar
  18   11   21 ar
  19   12   13 1
  20   12   32 1
  21   12   33 1
  22   13   14 1
  23   14   15 ar
  24   14   19 ar
  25   15   16 ar
  26   15   34 1
  27   16   17 ar
  28   16   35 1
  29   17   18 ar
  30   17   25 1
  31   18   19 ar
  32   18   36 1
  33   19   37 1
  34   20   24 ar
  35   21   22 ar
  36   22   23 ar
  37   22   38 1
  38   23   24 ar
  39   23   26 1
  40   24   27 1
  41   27   28 1
  42   28   39 1
  43   28   40 1
  44   28   41 1

#	End of record

