#	Name: ASD02448091
#	Creating user name:	WinNT
#	Creation time:	15. 06. 2019 20:21

#	Modifying user name:	WinNT
#	Modification time:	15. 06. 2019 20:21

#	Program:	/corina/corina34_cracker 3.40 0067  02.08.2006

@<TRIPOS>MOLECULE
ASD02448091
  74   79    0    0    0
SMALL
NO_CHARGES


@<TRIPOS>ATOM
   1 C1             0.3995     1.4557    -0.3713 C.ar    
   2 C2             0.2991     0.0877    -0.2398 C.ar    
   3 C3             1.4504    -0.7025    -0.2793 C.ar    
   4 C4             2.7000    -0.1023    -0.4520 C.ar    
   5 C5             2.7930     1.2662    -0.5828 C.ar    
   6 C6             1.6450     2.0497    -0.5430 C.ar    
   7 N7             1.7429     3.4359    -0.6763 N.am    
   8 C8             0.7170     4.3713    -1.1556 C.3     
   9 C9             1.2185     5.7793    -1.1467 C.2     
  10 N10            2.4790     5.9238    -0.7141 N.am    
  11 S11            3.0496     4.4103    -0.3207 S.o2    
  12 O12            0.5381     6.7178    -1.5034 O.2     
  13 O13            3.2305     4.3837     1.0885 O.2     
  14 O14            4.0692     4.0901    -1.2573 O.2     
  15 N15            0.4683    -3.0012    -0.7925 N.pl3   
  16 C16            1.3468    -2.1686    -0.1383 C.2     
  17 C17            0.7187    -4.2656    -0.3673 C.2     
  18 N18            1.6912    -4.2466     0.5004 N.2     
  19 C19            2.1137    -2.9803     0.6773 C.2     
  20 C20            3.2011    -2.5378     1.5805 C.ar    
  21 C21            4.4302    -3.1997     1.5742 C.ar    
  22 C22            3.0029    -1.4549     2.4362 C.ar    
  23 C23            4.0195    -1.0464     3.2753 C.ar    
  24 C24            5.2348    -1.7094     3.2690 C.ar    
  25 C25            5.4399    -2.7822     2.4180 C.ar    
  26 Cl26           6.5089    -1.1892     4.3272 Cl      
  27 Cl27           4.6882    -4.5452     0.5079 Cl      
  28 C28            0.9768    -6.5059    -1.3525 C.ar    
  29 C29            1.5345    -7.4368    -0.4948 C.ar    
  30 C30            2.4383    -8.3643    -0.9722 C.ar    
  31 C31            2.7886    -8.3616    -2.3209 C.ar    
  32 C32            2.2237    -7.4216    -3.1803 C.ar    
  33 C33            1.3210    -6.4987    -2.6922 C.ar    
  34 C34            3.7601    -9.3560    -2.8398 C.ar    
  35 C35            4.1104    -9.3534    -4.1884 C.ar    
  36 C36            5.0145   -10.2806    -4.6657 C.ar    
  37 C37            5.5722   -11.2116    -3.8081 C.ar    
  38 C38            5.2277   -11.2190    -2.4685 C.ar    
  39 C39            4.3297   -10.2921    -1.9791 C.ar    
  40 C40            6.5584   -12.2218    -4.3352 C.3     
  41 C41            7.7660   -11.4938    -4.9292 C.3     
  42 C42            7.0206   -13.1278    -3.1922 C.3     
  43 C43            5.8900   -13.0694    -5.4195 C.3     
  44 C44           -0.0142    -5.4997    -0.8266 C.3     
  45 H45           -0.4906     2.0668    -0.3453 H       
  46 H46           -0.6685    -0.3730    -0.1061 H       
  47 H47            3.5922    -0.7102    -0.4826 H       
  48 H48            3.7588     1.7309    -0.7160 H       
  49 H49            0.4334     4.0997    -2.1724 H       
  50 H50           -0.1595     4.3004    -0.5116 H       
  51 H51            2.9682     6.7581    -0.6408 H       
  52 H52           -0.2073    -2.7338    -1.4351 H       
  53 H53            2.0555    -0.9364     2.4421 H       
  54 H54            3.8668    -0.2075     3.9381 H       
  55 H55            6.3899    -3.2960     2.4175 H       
  56 H56            1.2625    -7.4377     0.5504 H       
  57 H57            2.8734    -9.0905    -0.3017 H       
  58 H58            2.4919    -7.4149    -4.2264 H       
  59 H59            0.8825    -5.7696    -3.3575 H       
  60 H60            3.6750    -8.6274    -4.8591 H       
  61 H61            5.2867   -10.2795    -5.7109 H       
  62 H62            5.6659   -11.9483    -1.8033 H       
  63 H63            4.0616   -10.2986    -0.9329 H       
  64 H64            8.2422   -10.8900    -4.1567 H       
  65 H65            8.4793   -12.2245    -5.3104 H       
  66 H66            7.4367   -10.8483    -5.7434 H       
  67 H67            6.1603   -13.6464    -2.7691 H       
  68 H68            7.7339   -13.8585    -3.5735 H       
  69 H69            7.4968   -12.5240    -2.4198 H       
  70 H70            5.5607   -12.4239    -6.2338 H       
  71 H71            6.6033   -13.8001    -5.8008 H       
  72 H72            5.0297   -13.5880    -4.9964 H       
  73 H73           -0.5600    -5.9315     0.0123 H       
  74 H74           -0.7153    -5.2327    -1.6174 H       
@<TRIPOS>BOND
   1    1    2 ar
   2    1    6 ar
   3    1   45 1
   4    2    3 ar
   5    2   46 1
   6    3    4 ar
   7    3   16 1
   8    4    5 ar
   9    4   47 1
  10    5    6 ar
  11    5   48 1
  12    6    7 1
  13    7    8 1
  14    7   11 am
  15    8    9 1
  16    8   49 1
  17    8   50 1
  18    9   10 am
  19    9   12 2
  20   10   11 am
  21   10   51 1
  22   11   13 2
  23   11   14 2
  24   15   16 1
  25   15   17 1
  26   15   52 1
  27   16   19 2
  28   17   18 2
  29   17   44 1
  30   18   19 1
  31   19   20 1
  32   20   21 ar
  33   20   22 ar
  34   21   27 1
  35   21   25 ar
  36   22   23 ar
  37   22   53 1
  38   23   24 ar
  39   23   54 1
  40   24   25 ar
  41   24   26 1
  42   25   55 1
  43   28   29 ar
  44   28   33 ar
  45   28   44 1
  46   29   30 ar
  47   29   56 1
  48   30   31 ar
  49   30   57 1
  50   31   32 ar
  51   31   34 1
  52   32   33 ar
  53   32   58 1
  54   33   59 1
  55   34   35 ar
  56   34   39 ar
  57   35   36 ar
  58   35   60 1
  59   36   37 ar
  60   36   61 1
  61   37   38 ar
  62   37   40 1
  63   38   39 ar
  64   38   62 1
  65   39   63 1
  66   40   41 1
  67   40   42 1
  68   40   43 1
  69   41   64 1
  70   41   65 1
  71   41   66 1
  72   42   67 1
  73   42   68 1
  74   42   69 1
  75   43   70 1
  76   43   71 1
  77   43   72 1
  78   44   73 1
  79   44   74 1

#	End of record

