#	Name: ASD01790001
#	Creating user name:	WinNT
#	Creation time:	15. 06. 2019 19:23

#	Modifying user name:	WinNT
#	Modification time:	15. 06. 2019 19:23

#	Program:	/corina/corina34_cracker 3.40 0067  02.08.2006

@<TRIPOS>MOLECULE
ASD01790001
  26   26    0    0    0
SMALL
NO_CHARGES


@<TRIPOS>ATOM
   1 C1            -0.0168     1.3900     0.0097 C.ar    
   2 C2             0.0021    -0.0041     0.0020 C.ar    
   3 C3            -1.1889    -0.7178     0.0100 C.ar    
   4 C4            -2.3948    -0.0518     0.0256 C.ar    
   5 C5            -2.4212     1.3456     0.0334 C.ar    
   6 C6            -1.2221     2.0641     0.0306 C.ar    
   7 O7             1.1516     2.0859     0.0023 O.3     
   8 O8             1.1880    -0.6653    -0.0138 O.3     
   9 C9            -3.7111     2.0603     0.0501 C.2     
  10 O10           -4.8659     1.3661     0.0579 O.3     
  11 O11           -3.7324     3.2751     0.0568 O.2     
  12 C12           -6.0973     2.1353     0.0743 C.3     
  13 C13           -7.2941     1.1820     0.0812 C.3     
  14 C14           -8.5916     1.9926     0.0985 C.3     
  15 H15           -1.1699    -1.7976     0.0037 H       
  16 H16           -3.3197    -0.6094     0.0315 H       
  17 H17           -1.2382     3.1440     0.0366 H       
  18 H18            1.4811     2.2919    -0.8832 H       
  19 H19            1.5406    -0.8616     0.8650 H       
  20 H20           -6.1244     2.7588     0.9680 H       
  21 H21           -6.1421     2.7683    -0.8119 H       
  22 H22           -7.2670     0.5585    -0.8125 H       
  23 H23           -7.2493     0.5490     0.9674 H       
  24 H24           -8.6186     2.6161     0.9921 H       
  25 H25           -8.6364     2.6256    -0.7877 H       
  26 H26           -9.4442     1.3134     0.1034 H       
@<TRIPOS>BOND
   1    1    2 ar
   2    1    7 1
   3    1    6 ar
   4    2    3 ar
   5    2    8 1
   6    3    4 ar
   7    3   15 1
   8    4    5 ar
   9    4   16 1
  10    5    6 ar
  11    5    9 1
  12    6   17 1
  13    7   18 1
  14    8   19 1
  15    9   10 1
  16    9   11 2
  17   10   12 1
  18   12   13 1
  19   12   20 1
  20   12   21 1
  21   13   14 1
  22   13   22 1
  23   13   23 1
  24   14   24 1
  25   14   25 1
  26   14   26 1

#	End of record

