#	Name: ASD09116139
#	Creating user name:	WinNT
#	Creation time:	15. 06. 2019 21:20

#	Modifying user name:	WinNT
#	Modification time:	15. 06. 2019 21:20

#	Program:	/corina/corina34_cracker 3.40 0067  02.08.2006

@<TRIPOS>MOLECULE
ASD09116139
  95  103    0    0    0
SMALL
NO_CHARGES


@<TRIPOS>ATOM
   1 N1            -0.0954     1.6609    -0.5826 N.2     
   2 C2            -0.1335     0.3582    -1.2707 C.3     
   3 C3             1.1555     2.0330    -0.5667 C.2     
   4 N4             1.9742     1.1411    -1.1609 N.2     
   5 C5             1.3207     0.1047    -1.6175 C.2     
   6 N6             1.5940     3.2141    -0.0017 N.pl3   
   7 C7             2.9637     3.4824     0.0830 C.ar    
   8 C8             3.4249     4.7886    -0.0259 C.ar    
   9 C9             3.8649     2.4442     0.2820 C.ar    
  10 C10            5.2179     2.7110     0.3657 C.ar    
  11 C11            5.6689     4.0150     0.2501 C.ar    
  12 C12            4.7814     5.0425     0.0592 C.ar    
  13 N13            1.8366    -0.9735    -2.2667 N.pl3   
  14 C14           -0.6552    -0.7144    -0.3497 C.ar    
  15 C15           -1.1378    -0.3589     0.8933 C.ar    
  16 N16           -0.6446    -1.9774    -0.7550 N.ar    
  17 C17           -1.0873    -2.9272     0.0149 C.ar    
  18 C18           -1.5891    -2.6597     1.2941 C.ar    
  19 C19           -1.6243    -1.3536     1.7556 C.ar    
  20 C20           -1.1285    -4.4036    -0.3345 C.3     
  21 C21           -0.3340    -5.1280     0.7717 C.3     
  22 C22           -0.8924    -4.7321     2.1404 C.3     
  23 N23           -2.0212    -3.7935     1.9868 N.3     
  24 C24           -3.0958    -4.4541     1.2200 C.3     
  25 C25           -2.5991    -4.8411    -0.1746 C.3     
  26 C26           -2.1470    -1.0222     3.1032 C.ar    
  27 C27           -1.4024    -0.2176     3.9640 C.ar    
  28 C28           -3.3874    -1.5095     3.5117 C.ar    
  29 C29           -3.8690    -1.1976     4.7668 C.ar    
  30 C30           -3.1236    -0.4025     5.6186 C.ar    
  31 C31           -1.8941     0.0879     5.2168 C.ar    
  32 C32            7.1538     4.3001     0.3415 C.3     
  33 C33            7.4288     5.0195     1.6642 C.3     
  34 C34            7.2209     6.5143     1.5214 C.3     
  35 C35            5.7796     6.9283     1.2995 C.3     
  36 C36            5.2821     6.4665    -0.0669 C.3     
  37 N37            7.7121     7.1716     2.7399 N.3     
  38 C38            7.0842     6.5979     3.9369 C.3     
  39 C39            7.5067     7.3996     5.1702 C.3     
  40 C40            9.0317     7.3586     5.3016 C.3     
  41 C41            9.6616     7.9167     4.0224 C.3     
  42 C42            9.1765     7.1001     2.8225 C.3     
  43 N43            9.4475     8.1747     6.4501 N.3     
  44 C44            8.9451     7.6040     7.7134 C.3     
  45 C45           10.1680     7.3563     8.6214 C.3     
  46 C46           11.2337     8.3251     8.0446 C.3     
  47 C47           10.9210     8.2673     6.5285 C.3     
  48 H48           -0.7419     0.4177    -2.1731 H       
  49 H49            0.9518     3.8577     0.3365 H       
  50 H50            2.7284     5.6002    -0.1763 H       
  51 H51            3.5080     1.4288     0.3715 H       
  52 H52            5.9207     1.9058     0.5210 H       
  53 H53            2.7903    -1.0277    -2.4349 H       
  54 H54            1.2507    -1.6881    -2.5615 H       
  55 H55           -1.1407     0.6765     1.2002 H       
  56 H56           -0.7313    -4.6051    -1.3293 H       
  57 H57           -0.4266    -6.2060     0.6393 H       
  58 H58            0.7163    -4.8429     0.7112 H       
  59 H59           -1.2361    -5.6260     2.6609 H       
  60 H60           -0.1057    -4.2559     2.7256 H       
  61 H61           -3.4162    -5.3513     1.7496 H       
  62 H62           -3.9409    -3.7723     1.1245 H       
  63 H63           -3.2100    -4.3451    -0.9288 H       
  64 H64           -2.6726    -5.9214    -0.2999 H       
  65 H65           -0.4424     0.1658     3.6513 H       
  66 H66           -3.9706    -2.1298     2.8472 H       
  67 H67           -4.8300    -1.5746     5.0844 H       
  68 H68           -3.5046    -0.1606     6.5998 H       
  69 H69           -1.3162     0.7078     5.8862 H       
  70 H70            7.7093     3.3627     0.3120 H       
  71 H71            7.4568     4.9352    -0.4909 H       
  72 H72            6.7531     4.6353     2.4282 H       
  73 H73            8.4579     4.8285     1.9685 H       
  74 H74            7.8156     6.8672     0.6789 H       
  75 H75            5.1558     6.4837     2.0750 H       
  76 H76            5.7054     8.0141     1.3600 H       
  77 H77            6.1002     6.5033    -0.7862 H       
  78 H78            4.4694     7.1128    -0.3984 H       
  79 H79            5.9999     6.6370     3.8324 H       
  80 H80            7.4007     5.5612     4.0517 H       
  81 H81            7.1784     8.4333     5.0623 H       
  82 H82            7.0529     6.9640     6.0604 H       
  83 H83            9.3571     6.3287     5.4485 H       
  84 H84            9.3671     8.9586     3.8965 H       
  85 H85           10.7473     7.8507     4.0926 H       
  86 H86            9.4833     6.0611     2.9425 H       
  87 H87            9.6120     7.5039     1.9085 H       
  88 H88            8.2637     8.3069     8.1927 H       
  89 H89            8.4324     6.6625     7.5169 H       
  90 H90            9.9372     7.6092     9.6562 H       
  91 H91           10.5039     6.3224     8.5419 H       
  92 H92           11.0955     9.3339     8.4336 H       
  93 H93           12.2414     7.9638     8.2495 H       
  94 H94           11.3810     7.3870     6.0794 H       
  95 H95           11.2711     9.1734     6.0340 H       
@<TRIPOS>BOND
   1    1    2 1
   2    1    3 2
   3    2   14 1
   4    2    5 1
   5    2   48 1
   6    3    4 1
   7    3    6 1
   8    4    5 2
   9    5   13 1
  10    6    7 1
  11    6   49 1
  12    7    8 ar
  13    7    9 ar
  14    8   12 ar
  15    8   50 1
  16    9   10 ar
  17    9   51 1
  18   10   11 ar
  19   10   52 1
  20   11   12 ar
  21   11   32 1
  22   12   36 1
  23   13   53 1
  24   13   54 1
  25   14   15 ar
  26   14   16 ar
  27   15   19 ar
  28   15   55 1
  29   16   17 ar
  30   17   18 ar
  31   17   20 1
  32   18   19 ar
  33   18   23 1
  34   19   26 1
  35   20   21 1
  36   20   25 1
  37   20   56 1
  38   21   22 1
  39   21   57 1
  40   21   58 1
  41   22   23 1
  42   22   59 1
  43   22   60 1
  44   23   24 1
  45   24   25 1
  46   24   61 1
  47   24   62 1
  48   25   63 1
  49   25   64 1
  50   26   27 ar
  51   26   28 ar
  52   27   31 ar
  53   27   65 1
  54   28   29 ar
  55   28   66 1
  56   29   30 ar
  57   29   67 1
  58   30   31 ar
  59   30   68 1
  60   31   69 1
  61   32   33 1
  62   32   70 1
  63   32   71 1
  64   33   34 1
  65   33   72 1
  66   33   73 1
  67   34   35 1
  68   34   37 1
  69   34   74 1
  70   35   36 1
  71   35   75 1
  72   35   76 1
  73   36   77 1
  74   36   78 1
  75   37   38 1
  76   37   42 1
  77   38   39 1
  78   38   79 1
  79   38   80 1
  80   39   40 1
  81   39   81 1
  82   39   82 1
  83   40   41 1
  84   40   43 1
  85   40   83 1
  86   41   42 1
  87   41   84 1
  88   41   85 1
  89   42   86 1
  90   42   87 1
  91   43   44 1
  92   43   47 1
  93   44   45 1
  94   44   88 1
  95   44   89 1
  96   45   46 1
  97   45   90 1
  98   45   91 1
  99   46   47 1
 100   46   92 1
 101   46   93 1
 102   47   94 1
 103   47   95 1

#	End of record

