#	Name: ASD01916146
#	Creating user name:	WinNT
#	Creation time:	15. 06. 2019 20:06

#	Modifying user name:	WinNT
#	Modification time:	15. 06. 2019 20:06

#	Program:	/corina/corina34_cracker 3.40 0067  02.08.2006

@<TRIPOS>MOLECULE
ASD01916146
  45   48    0    0    0
SMALL
NO_CHARGES


@<TRIPOS>ATOM
   1 C1             0.0831     1.3908    -0.0630 C.ar    
   2 C2             0.0876     0.0093    -0.0622 C.ar    
   3 C3             1.2920    -0.6793    -0.0595 C.ar    
   4 C4             2.4891     0.0218    -0.0577 C.ar    
   5 C5             2.4793     1.4032    -0.0585 C.ar    
   6 C6             1.2776     2.0871    -0.0611 C.ar    
   7 O7             1.2990    -2.0382    -0.0583 O.3     
   8 C8             2.5756    -2.6804    -0.0556 C.3     
   9 C9             2.3859    -4.1754    -0.0545 C.2     
  10 C10            1.1565    -4.8468    -0.0560 C.2     
  11 N11            3.3424    -5.0706    -0.0578 N.2     
  12 N12            2.7534    -6.3379    -0.0599 N.pl3   
  13 C13            1.4109    -6.1689    -0.0537 C.2     
  14 C14            3.4356    -7.6349    -0.0764 C.3     
  15 C15            2.4618    -8.7238     0.3868 C.3     
  16 N16            1.1726    -8.5441    -0.2980 N.am    
  17 C17            0.4161    -7.3054    -0.0399 C.3     
  18 C18            0.6971    -9.4825    -1.1404 C.2     
  19 C19           -0.6587    -9.3419    -1.7151 C.ar    
  20 O20            1.3822   -10.4444    -1.4279 O.2     
  21 C21           -1.6823    -8.7743    -0.9557 C.ar    
  22 C22           -3.2013    -9.0788    -2.7970 C.ar    
  23 C23           -2.1725    -9.6418    -3.5567 C.ar    
  24 C24           -0.9118    -9.7721    -3.0197 C.ar    
  25 C25           -2.9477    -8.6427    -1.4923 C.ar    
  26 F26           -3.9399    -8.0937    -0.7579 F       
  27 C27           -4.5129    -8.9437    -3.3554 C.1     
  28 N28           -5.5535    -8.8365    -3.7984 N.1     
  29 H29           -0.8542     1.9273    -0.0696 H       
  30 H30           -0.8457    -0.5342    -0.0632 H       
  31 H31            3.4280    -0.5120    -0.0553 H       
  32 H32            3.4110     1.9494    -0.0567 H       
  33 H33            1.2720     3.1671    -0.0617 H       
  34 H34            3.1326    -2.3854    -0.9449 H       
  35 H35            3.1296    -2.3838     0.8351 H       
  36 H36            0.1796    -4.3864    -0.0585 H       
  37 H37            3.7736    -7.8555    -1.0889 H       
  38 H38            4.2932    -7.6036     0.5957 H       
  39 H39            2.8699    -9.7048     0.1430 H       
  40 H40            2.3155    -8.6471     1.4642 H       
  41 H41           -0.0671    -7.3612     0.9355 H       
  42 H42           -0.3319    -7.1574    -0.8187 H       
  43 H43           -1.4850    -8.4385     0.0516 H       
  44 H44           -2.3668    -9.9753    -4.5654 H       
  45 H45           -0.1173   -10.2072    -3.6079 H       
@<TRIPOS>BOND
   1    1    2 ar
   2    1    6 ar
   3    1   29 1
   4    2    3 ar
   5    2   30 1
   6    3    4 ar
   7    3    7 1
   8    4    5 ar
   9    4   31 1
  10    5    6 ar
  11    5   32 1
  12    6   33 1
  13    7    8 1
  14    8    9 1
  15    8   34 1
  16    8   35 1
  17    9   10 1
  18    9   11 2
  19   10   13 2
  20   10   36 1
  21   11   12 1
  22   12   13 1
  23   12   14 1
  24   13   17 1
  25   14   15 1
  26   14   37 1
  27   14   38 1
  28   15   16 1
  29   15   39 1
  30   15   40 1
  31   16   17 1
  32   16   18 am
  33   17   41 1
  34   17   42 1
  35   18   19 1
  36   18   20 2
  37   19   21 ar
  38   19   24 ar
  39   21   25 ar
  40   21   43 1
  41   22   23 ar
  42   22   27 1
  43   22   25 ar
  44   23   24 ar
  45   23   44 1
  46   24   45 1
  47   25   26 1
  48   27   28 3

#	End of record

