#	Name: ASD09116103
#	Creating user name:	WinNT
#	Creation time:	15. 06. 2019 21:20

#	Modifying user name:	WinNT
#	Modification time:	15. 06. 2019 21:20

#	Program:	/corina/corina34_cracker 3.40 0067  02.08.2006

@<TRIPOS>MOLECULE
ASD09116103
  75   80    0    0    0
SMALL
NO_CHARGES


@<TRIPOS>ATOM
   1 C1             5.5336    -1.1324    -1.7753 C.ar    
   2 N2             4.5040    -2.0408    -1.5388 N.pl3   
   3 N3             3.4208    -1.8760    -0.6604 N.2     
   4 C4             2.6915    -2.9626    -0.7429 C.2     
   5 N5             3.2520    -3.8018    -1.6218 N.2     
   6 C6             4.3446    -3.2613    -2.1170 C.2     
   7 N7             5.1848    -3.8350    -3.0515 N.pl3   
   8 N8             1.5188    -3.2052    -0.0284 N.pl3   
   9 C9             5.5588     0.0996    -1.1006 C.ar    
  10 N10            6.4906    -1.4284    -2.6440 N.ar    
  11 C11            7.4712    -0.5795    -2.8719 C.ar    
  12 N12            7.5275     0.5754    -2.2476 N.ar    
  13 C13            6.6070     0.9513    -1.3708 C.ar    
  14 C14            0.8890    -4.4531    -0.1188 C.ar    
  15 C15            1.6390    -5.6079    -0.3356 C.ar    
  16 C16            0.9754    -6.8186    -0.4176 C.ar    
  17 C17           -0.4083    -6.8438    -0.2820 C.ar    
  18 N18           -1.0887    -5.7271    -0.0769 N.ar    
  19 C19           -0.4879    -4.5556     0.0120 C.ar    
  20 N20           -1.0862    -8.0579    -0.3635 N.3     
  21 C21           -0.7855    -8.7448    -1.6261 C.3     
  22 C22            6.7579     2.2830    -0.7006 C.3     
  23 C23            5.8808     3.3553    -1.3277 C.3     
  24 C24            4.5333     2.8294    -1.8093 C.3     
  25 C25            3.8229     2.7805    -0.4643 C.3     
  26 C26            4.2407     1.7182     0.5451 C.3     
  27 C27            4.4370     0.3739    -0.1447 C.3     
  28 C28           -2.5322    -7.8656    -0.1949 C.3     
  29 C29           -3.2268    -9.2283    -0.1444 C.3     
  30 C30           -2.9421    -9.9893    -1.4422 C.3     
  31 C31           -1.4280   -10.1338    -1.6183 C.3     
  32 C32           -3.5834   -11.3767    -1.3726 C.3     
  33 N33           -3.4127   -12.0603    -2.6616 N.3     
  34 C34           -3.8026   -13.4788    -2.5632 C.3     
  35 C35           -4.8964   -13.7270    -3.6231 C.3     
  36 C36           -4.6614   -12.5815    -4.6426 C.3     
  37 C37           -4.2303   -11.4193    -3.7136 C.3     
  38 H38            4.9892    -4.7179    -3.4022 H       
  39 H39            5.9704    -3.3549    -3.3568 H       
  40 H40            1.1392    -2.5098     0.5313 H       
  41 H41            8.2394    -0.8373    -3.5847 H       
  42 H42            2.7130    -5.5583    -0.4375 H       
  43 H43            1.5250    -7.7330    -0.5852 H       
  44 H44           -1.0760    -3.6655     0.1799 H       
  45 H45           -1.1838    -8.1651    -2.4587 H       
  46 H46            0.2943    -8.8447    -1.7369 H       
  47 H47            6.5750     2.2013     0.3621 H       
  48 H48            7.8078     2.5995    -0.8197 H       
  49 H49            5.7115     4.1462    -0.5954 H       
  50 H50            6.4112     3.7877    -2.1794 H       
  51 H51            4.0536     3.5376    -2.4949 H       
  52 H52            4.6147     1.8488    -2.2773 H       
  53 H53            3.9290     3.7608     0.0121 H       
  54 H54            2.7507     2.6508    -0.6597 H       
  55 H55            5.1270     2.0165     1.0916 H       
  56 H56            3.4294     1.6086     1.2865 H       
  57 H57            3.5036     0.1592    -0.6806 H       
  58 H58            4.5007    -0.3824     0.6477 H       
  59 H59           -2.7211    -7.3270     0.7337 H       
  60 H60           -2.9223    -7.2900    -1.0343 H       
  61 H61           -2.8471    -9.7992     0.7030 H       
  62 H62           -4.3018    -9.0850    -0.0349 H       
  63 H63           -3.3560    -9.4376    -2.2863 H       
  64 H64           -1.2177   -10.6373    -2.5619 H       
  65 H65           -1.0199   -10.7188    -0.7941 H       
  66 H66           -3.1041   -11.9595    -0.5860 H       
  67 H67           -4.6462   -11.2751    -1.1531 H       
  68 H68           -2.9406   -14.1151    -2.7639 H       
  69 H69           -4.1962   -13.6870    -1.5683 H       
  70 H70           -4.7601   -14.6989    -4.0973 H       
  71 H71           -5.8885   -13.6497    -3.1784 H       
  72 H72           -3.8656   -12.8382    -5.3418 H       
  73 H73           -5.5814   -12.3363    -5.1734 H       
  74 H74           -5.1052   -10.9397    -3.2747 H       
  75 H75           -3.6353   -10.6923    -4.2664 H       
@<TRIPOS>BOND
   1    1    2 1
   2    1    9 ar
   3    1   10 ar
   4    2    3 1
   5    2    6 1
   6    3    4 2
   7    4    5 1
   8    4    8 1
   9    5    6 2
  10    6    7 1
  11    7   38 1
  12    7   39 1
  13    8   14 1
  14    8   40 1
  15    9   13 ar
  16    9   27 1
  17   10   11 ar
  18   11   12 ar
  19   11   41 1
  20   12   13 ar
  21   13   22 1
  22   14   15 ar
  23   14   19 ar
  24   15   16 ar
  25   15   42 1
  26   16   17 ar
  27   16   43 1
  28   17   18 ar
  29   17   20 1
  30   18   19 ar
  31   19   44 1
  32   20   28 1
  33   20   21 1
  34   21   31 1
  35   21   45 1
  36   21   46 1
  37   22   23 1
  38   22   47 1
  39   22   48 1
  40   23   24 1
  41   23   49 1
  42   23   50 1
  43   24   25 1
  44   24   51 1
  45   24   52 1
  46   25   26 1
  47   25   53 1
  48   25   54 1
  49   26   27 1
  50   26   55 1
  51   26   56 1
  52   27   57 1
  53   27   58 1
  54   28   29 1
  55   28   59 1
  56   28   60 1
  57   29   30 1
  58   29   61 1
  59   29   62 1
  60   30   31 1
  61   30   32 1
  62   30   63 1
  63   31   64 1
  64   31   65 1
  65   32   33 1
  66   32   66 1
  67   32   67 1
  68   33   34 1
  69   33   37 1
  70   34   35 1
  71   34   68 1
  72   34   69 1
  73   35   36 1
  74   35   70 1
  75   35   71 1
  76   36   37 1
  77   36   72 1
  78   36   73 1
  79   37   74 1
  80   37   75 1

#	End of record

