#	Name: ASD03200022
#	Creating user name:	WinNT
#	Creation time:	15. 06. 2019 20:34

#	Modifying user name:	WinNT
#	Modification time:	15. 06. 2019 20:34

#	Program:	/corina/corina34_cracker 3.40 0067  02.08.2006

@<TRIPOS>MOLECULE
ASD03200022
  51   53    0    0    0
SMALL
NO_CHARGES


@<TRIPOS>ATOM
   1 C1             0.9258    -1.0959    -0.1611 C.3     
   2 N2            -0.0712    -0.0294    -0.0034 N.3     
   3 C3             0.2515     0.8344     1.1395 C.3     
   4 C4             1.6035     1.5113     0.9032 C.3     
   5 C5             2.6824     0.4387     0.7296 C.3     
   6 C6             2.2980    -0.4766    -0.4362 C.3     
   7 C7            -1.3549    -0.5594     0.1178 C.ar    
   8 C8            -2.0701    -0.4358     1.3063 C.ar    
   9 C9            -3.3386    -0.9738     1.3865 C.ar    
  10 N10           -3.8771    -1.5998     0.3573 N.ar    
  11 C11           -3.2363    -1.7406    -0.7880 C.ar    
  12 C12           -1.9616    -1.2251    -0.9540 C.ar    
  13 N13           -1.2853    -1.3773    -2.1721 N.am    
  14 C14           -1.4585    -2.4958    -2.9038 C.2     
  15 C15           -0.6832    -2.6959    -4.1300 C.2     
  16 O16           -2.2594    -3.3398    -2.5454 O.2     
  17 C17           -0.8856    -3.7628    -4.9745 C.2     
  18 S18            0.2497    -3.6163    -6.3141 S.3     
  19 C19            0.8932    -2.1340    -5.6171 C.2     
  20 N20            0.2765    -1.8543    -4.5258 N.2     
  21 C21            2.0027    -1.3092    -6.2169 C.3     
  22 N22            1.9357     2.3589     2.0561 N.3     
  23 N23           -1.8142    -4.7712    -4.8023 N.pl3   
  24 N24            3.2847    -1.7035    -5.6178 N.3     
  25 C25            4.4056    -1.0168    -6.2736 C.3     
  26 C26            3.2884    -1.4533    -4.1702 C.3     
  27 H27            0.9714    -1.6885     0.7526 H       
  28 H28            0.6428    -1.7371    -0.9959 H       
  29 H29           -0.5213     1.5952     1.2493 H       
  30 H30            0.3002     0.2328     2.0471 H       
  31 H31            1.5514     2.1241     0.0033 H       
  32 H32            3.6394     0.9156     0.5180 H       
  33 H33            2.7617    -0.1495     1.6438 H       
  34 H34            3.0407    -1.2680    -0.5377 H       
  35 H35            2.2568     0.1049    -1.3572 H       
  36 H36           -1.6377     0.0742     2.1544 H       
  37 H37           -3.8986    -0.8814     2.3054 H       
  38 H38           -3.7128    -2.2604    -1.6061 H       
  39 H39           -0.6927    -0.6776    -2.4885 H       
  40 H40            2.0382    -1.4760    -7.2935 H       
  41 H41            1.8185    -0.2533    -6.0187 H       
  42 H42            2.8598     2.7528     1.9610 H       
  43 H43            1.2452     3.0835     2.1831 H       
  44 H44           -2.3982    -4.7657    -4.0279 H       
  45 H45           -1.8821    -5.4848    -5.4559 H       
  46 H46            4.2854     0.0611    -6.1642 H       
  47 H47            5.3425    -1.3267    -5.8107 H       
  48 H48            4.4205    -1.2751    -7.3324 H       
  49 H49            2.5522    -2.0966    -3.6884 H       
  50 H50            4.2780    -1.6681    -3.7669 H       
  51 H51            3.0378    -0.4094    -3.9813 H       
@<TRIPOS>BOND
   1    1    2 1
   2    1    6 1
   3    1   27 1
   4    1   28 1
   5    2    3 1
   6    2    7 1
   7    3    4 1
   8    3   29 1
   9    3   30 1
  10    4    5 1
  11    4   22 1
  12    4   31 1
  13    5    6 1
  14    5   32 1
  15    5   33 1
  16    6   34 1
  17    6   35 1
  18    7    8 ar
  19    7   12 ar
  20    8    9 ar
  21    8   36 1
  22    9   10 ar
  23    9   37 1
  24   10   11 ar
  25   11   12 ar
  26   11   38 1
  27   12   13 1
  28   13   14 am
  29   13   39 1
  30   14   15 1
  31   14   16 2
  32   15   17 2
  33   15   20 1
  34   17   18 1
  35   17   23 1
  36   18   19 1
  37   19   20 2
  38   19   21 1
  39   21   24 1
  40   21   40 1
  41   21   41 1
  42   22   42 1
  43   22   43 1
  44   23   44 1
  45   23   45 1
  46   24   25 1
  47   24   26 1
  48   25   46 1
  49   25   47 1
  50   25   48 1
  51   26   49 1
  52   26   50 1
  53   26   51 1

#	End of record

