#	Name: ASD01150864
#	Creating user name:	WinNT
#	Creation time:	15. 06. 2019 19:05

#	Modifying user name:	WinNT
#	Modification time:	15. 06. 2019 19:05

#	Program:	/corina/corina34_cracker 3.40 0067  02.08.2006

@<TRIPOS>MOLECULE
ASD01150864
  55   56    0    0    0
SMALL
NO_CHARGES


@<TRIPOS>ATOM
   1 C1            -0.0179     1.4716     0.0101 C.ar    
   2 C2             0.0021    -0.0041     0.0020 C.2     
   3 N3            -1.1558    -0.6938     0.0094 N.am    
   4 O4             1.0634    -0.5978    -0.0113 O.2     
   5 C5            -1.1368    -2.0973     0.0016 C.2     
   6 N6            -0.0512    -2.8619    -0.0124 N.2     
   7 C7            -0.4072    -4.1338    -0.0155 C.2     
   8 N8            -1.7809    -4.2075    -0.0030 N.pl3   
   9 C9            -2.2484    -2.9264     0.0134 C.2     
  10 S10           -3.9367    -2.4226     0.0351 S.3     
  11 C11            0.5077    -5.2753    -0.0302 C.2     
  12 O12            1.8418    -5.0707    -0.0416 O.3     
  13 C13           -2.5882    -5.4299    -0.0024 C.3     
  14 C14            1.1815     2.1886     0.0025 C.ar    
  15 C15            1.1585     3.5654     0.0102 C.ar    
  16 C16           -0.0555     4.2420     0.0259 C.ar    
  17 C17           -1.2507     3.5326     0.0335 C.ar    
  18 C18           -1.2364     2.1557     0.0196 C.ar    
  19 O19           -0.0739     5.5990     0.0343 O.3     
  20 C20           -1.3558     6.2304     0.0504 C.3     
  21 C21           -4.2198    -2.3490     1.8213 C.3     
  22 O22            0.0660    -6.4090    -0.0323 O.2     
  23 C23            2.6759    -6.2309    -0.0557 C.3     
  24 C24            4.1448    -5.8029    -0.0671 C.3     
  25 C25           -2.8563    -5.8634     1.4402 C.3     
  26 C26           -3.6994    -7.1401     1.4409 C.3     
  27 C27           -2.8951    -8.2828     0.8178 C.3     
  28 C28           -4.0724    -7.5042     2.8794 C.3     
  29 H29           -2.0023    -0.2203     0.0200 H       
  30 H30           -3.5357    -5.2399    -0.5067 H       
  31 H31           -2.0505    -6.2208    -0.5254 H       
  32 H32            2.1252     1.6635    -0.0090 H       
  33 H33            2.0851     4.1202     0.0043 H       
  34 H34           -2.1920     4.0620     0.0458 H       
  35 H35           -2.1656     1.6052     0.0252 H       
  36 H36           -1.9172     5.9353    -0.8360 H       
  37 H37           -1.9002     5.9245     0.9438 H       
  38 H38           -1.2276     7.3128     0.0558 H       
  39 H39           -3.5363    -1.6269     2.2681 H       
  40 H40           -5.2481    -2.0432     2.0139 H       
  41 H41           -4.0454    -3.3325     2.2577 H       
  42 H42            2.4792    -6.8307     0.8329 H       
  43 H43            2.4625    -6.8211    -0.9470 H       
  44 H44            4.7811    -6.6879    -0.0779 H       
  45 H45            4.3416    -5.2031    -0.9557 H       
  46 H46            4.3582    -5.2128     0.8241 H       
  47 H47           -1.9088    -6.0534     1.9445 H       
  48 H48           -3.3941    -5.0726     1.9633 H       
  49 H49           -4.6073    -6.9762     0.8605 H       
  50 H50           -3.4957    -9.1923     0.8182 H       
  51 H51           -2.6293    -8.0234    -0.2070 H       
  52 H52           -1.9871    -8.4466     1.3982 H       
  53 H53           -4.6454    -6.6902     3.3233 H       
  54 H54           -4.6730    -8.4138     2.8798 H       
  55 H55           -3.1644    -7.6681     3.4598 H       
@<TRIPOS>BOND
   1    1    2 1
   2    1   14 ar
   3    1   18 ar
   4    2    3 am
   5    2    4 2
   6    3    5 1
   7    3   29 1
   8    5    6 1
   9    5    9 2
  10    6    7 2
  11    7    8 1
  12    7   11 1
  13    8    9 1
  14    8   13 1
  15    9   10 1
  16   10   21 1
  17   11   12 1
  18   11   22 2
  19   12   23 1
  20   13   25 1
  21   13   30 1
  22   13   31 1
  23   14   15 ar
  24   14   32 1
  25   15   16 ar
  26   15   33 1
  27   16   17 ar
  28   16   19 1
  29   17   18 ar
  30   17   34 1
  31   18   35 1
  32   19   20 1
  33   20   36 1
  34   20   37 1
  35   20   38 1
  36   21   39 1
  37   21   40 1
  38   21   41 1
  39   23   24 1
  40   23   42 1
  41   23   43 1
  42   24   44 1
  43   24   45 1
  44   24   46 1
  45   25   26 1
  46   25   47 1
  47   25   48 1
  48   26   27 1
  49   26   28 1
  50   26   49 1
  51   27   50 1
  52   27   51 1
  53   27   52 1
  54   28   53 1
  55   28   54 1
  56   28   55 1

#	End of record

