#	Name: ASD00841924
#	Creating user name:	WinNT
#	Creation time:	15. 06. 2019 18:43

#	Modifying user name:	WinNT
#	Modification time:	15. 06. 2019 18:43

#	Program:	/corina/corina34_cracker 3.40 0067  02.08.2006

@<TRIPOS>MOLECULE
ASD00841924
  98  102    0    0    0
SMALL
NO_CHARGES


@<TRIPOS>ATOM
   1 C1             0.9808     1.5572    -0.3566 C.ar    
   2 C2             1.2953     0.2308    -0.6135 C.ar    
   3 C3             1.2390    -0.7040     0.4103 C.ar    
   4 C4             0.8702    -0.3119     1.6823 C.ar    
   5 C5             0.5567     1.0109     1.9358 C.ar    
   6 C6             0.6125     1.9443     0.9175 C.ar    
   7 C7             1.5795    -2.1459     0.1346 C.3     
   8 C8             1.3247    -2.9950     1.3617 C.2     
   9 C9             0.7719    -2.6678    -1.0555 C.3     
  10 C10           -0.6972    -2.4508    -0.7996 C.2     
  11 N11           -1.6101    -2.9226    -1.6717 N.am    
  12 O12           -1.0581    -1.8515     0.1911 O.2     
  13 C13           -3.0377    -2.6226    -1.4966 C.3     
  14 C14           -3.8218    -3.9386    -1.4969 C.3     
  15 C15           -3.4957    -4.7217    -2.7707 C.3     
  16 C16           -2.0012    -5.0499    -2.8014 C.3     
  17 C17           -1.1959    -3.7418    -2.8189 C.3     
  18 N18           -4.2712    -5.9692    -2.7903 N.3     
  19 C19           -4.0742    -6.6920    -4.0546 C.3     
  20 C20           -4.8333    -8.0200    -4.0036 C.3     
  21 N21           -6.2597    -7.7571    -3.7672 N.3     
  22 C22           -6.4567    -7.0344    -2.5029 C.3     
  23 C23           -5.6976    -5.7063    -2.5540 C.3     
  24 C24           -7.0352    -9.0046    -3.7868 C.3     
  25 O25            0.2583    -3.1583     1.9159 O.2     
  26 N26            2.5019    -3.5334     1.7218 N.am    
  27 C27            3.0615    -2.3009    -0.1186 C.ar    
  28 C28            3.5413    -3.1464     0.8742 C.ar    
  29 C29            3.9056    -1.7871    -1.0772 C.ar    
  30 C30            5.2516    -2.1123    -1.0587 C.ar    
  31 C31            5.7427    -2.9545    -0.0738 C.ar    
  32 C32            4.8959    -3.4705     0.8885 C.ar    
  33 Cl33           6.3200    -1.4675    -2.2655 Cl      
  34 F34            7.0556    -3.2727    -0.0545 F       
  35 C35            2.4523    -6.1879     2.4468 C.ar    
  36 C36            3.5248    -6.9227     1.9769 C.ar    
  37 C37            1.1885    -6.7475     2.4708 C.ar    
  38 C38            0.9972    -8.0420     2.0250 C.ar    
  39 C39            2.0696    -8.7766     1.5548 C.ar    
  40 C40            3.3334    -8.2170     1.5307 C.ar    
  41 H41            1.9202    -9.7880     1.2065 H       
  42 H42            4.5121    -6.4855     1.9581 H       
  43 C43           -8.4892    -8.7071    -3.4150 C.3     
  44 C44           -6.9820    -9.6162    -5.1882 C.3     
  45 S45            2.6973    -4.5405     3.0217 S.o2    
  46 O46            4.0638    -4.4467     3.4002 O.2     
  47 O47            1.6239    -4.2617     3.9102 O.2     
  48 O48            1.6574    -0.1525    -1.8660 O.3     
  49 C49            2.1222     0.2544    -4.2025 C.3     
  50 C50            1.5850     0.8376    -2.8939 C.3     
  51 H51            1.0282     2.2875    -1.1508 H       
  52 H52            0.8262    -1.0391     2.4796 H       
  53 H53            0.2679     1.3154     2.9309 H       
  54 H54            0.3672     2.9768     1.1180 H       
  55 H55            1.0667    -2.1317    -1.9577 H       
  56 H56            0.9646    -3.7326    -1.1864 H       
  57 H57           -3.1891    -2.1073    -0.5481 H       
  58 H58           -3.3818    -1.9920    -2.3164 H       
  59 H59           -3.5414    -4.5294    -0.6249 H       
  60 H60           -4.8902    -3.7255    -1.4643 H       
  61 H61           -3.7534    -4.1205    -3.6426 H       
  62 H62           -1.7380    -5.6302    -1.9170 H       
  63 H63           -1.7739    -5.6277    -3.6972 H       
  64 H64           -1.3909    -3.2050    -3.7473 H       
  65 H65           -0.1322    -3.9665    -2.7409 H       
  66 H66           -4.4513    -6.0891    -4.8807 H       
  67 H67           -3.0116    -6.8859    -4.2009 H       
  68 H68           -4.7123    -8.5447    -4.9513 H       
  69 H69           -4.4378    -8.6341    -3.1945 H       
  70 H70           -7.5193    -6.8405    -2.3566 H       
  71 H71           -6.0796    -7.6372    -1.6768 H       
  72 H72           -5.8186    -5.1817    -1.6063 H       
  73 H73           -6.0931    -5.0923    -3.3631 H       
  74 H74           -6.6126    -9.7064    -3.0678 H       
  75 H75            3.5184    -1.1314    -1.8430 H       
  76 H76            5.2851    -4.1260     1.6535 H       
  77 H77            0.3507    -6.1736     2.8381 H       
  78 H78            0.0100    -8.4795     2.0444 H       
  79 H79            4.1713    -8.7911     1.1637 H       
  80 H80           -9.0646    -9.6328    -3.4296 H       
  81 H81           -8.5271    -8.2714    -2.4166 H       
  82 H82           -8.9118    -8.0053    -4.1340 H       
  83 H83           -5.9462    -9.8282    -5.4531 H       
  84 H84           -7.5574   -10.5419    -5.2028 H       
  85 H85           -7.4046    -8.9144    -5.9072 H       
  86 H86            3.1290    -0.1312    -4.0422 H       
  87 H87            1.4715    -0.5549    -4.5337 H       
  88 H88            2.1486     1.0340    -4.9638 H       
  89 H89            0.5479     1.1436    -3.0312 H       
  90 H90            2.1843     1.7022    -2.6084 H       
  91 C91           13.0574     9.8839     9.8154 C.3     
  92 C92           13.0782     8.3541     9.8070 C.3     
  93 H93           14.0800    10.2612     9.8077 H       
  94 H94           12.5303    10.2450     8.9323 H       
  95 H95           12.5473    10.2354    10.7122 H       
  96 H96           13.6054     7.9930    10.6900 H       
  97 H97           12.0556     7.9768     9.8147 H       
  98 H98           13.5884     8.0025     8.9102 H       
@<TRIPOS>BOND
   1    1    2 ar
   2    1    6 ar
   3    1   51 1
   4    2    3 ar
   5    2   48 1
   6    3    4 ar
   7    3    7 1
   8    4    5 ar
   9    4   52 1
  10    5    6 ar
  11    5   53 1
  12    6   54 1
  13    7    8 1
  14    7    9 1
  15    7   27 1
  16    8   25 2
  17    8   26 am
  18    9   10 1
  19    9   55 1
  20    9   56 1
  21   10   11 am
  22   10   12 2
  23   11   13 1
  24   11   17 1
  25   13   14 1
  26   13   57 1
  27   13   58 1
  28   14   15 1
  29   14   59 1
  30   14   60 1
  31   15   16 1
  32   15   18 1
  33   15   61 1
  34   16   17 1
  35   16   62 1
  36   16   63 1
  37   17   64 1
  38   17   65 1
  39   18   19 1
  40   18   23 1
  41   19   20 1
  42   19   66 1
  43   19   67 1
  44   20   21 1
  45   20   68 1
  46   20   69 1
  47   21   22 1
  48   21   24 1
  49   22   23 1
  50   22   70 1
  51   22   71 1
  52   23   72 1
  53   23   73 1
  54   24   43 1
  55   24   44 1
  56   24   74 1
  57   26   45 am
  58   26   28 1
  59   27   28 ar
  60   27   29 ar
  61   28   32 ar
  62   29   30 ar
  63   29   75 1
  64   30   31 ar
  65   30   33 1
  66   31   32 ar
  67   31   34 1
  68   32   76 1
  69   35   36 ar
  70   35   37 ar
  71   35   45 1
  72   36   42 1
  73   36   40 ar
  74   37   38 ar
  75   37   77 1
  76   38   39 ar
  77   38   78 1
  78   39   40 ar
  79   39   41 1
  80   40   79 1
  81   43   80 1
  82   43   81 1
  83   43   82 1
  84   44   83 1
  85   44   84 1
  86   44   85 1
  87   45   46 2
  88   45   47 2
  89   48   50 1
  90   49   50 1
  91   49   86 1
  92   49   87 1
  93   49   88 1
  94   50   89 1
  95   50   90 1
  96   91   92 1
  97   91   93 1
  98   91   94 1
  99   91   95 1
 100   92   96 1
 101   92   97 1
 102   92   98 1

#	End of record

