#	Name: ASD04882102
#	Creating user name:	WinNT
#	Creation time:	15. 06. 2019 20:54

#	Modifying user name:	WinNT
#	Modification time:	15. 06. 2019 20:54

#	Program:	/corina/corina34_cracker 3.40 0067  02.08.2006

@<TRIPOS>MOLECULE
ASD04882102
  81   85    0    0    0
SMALL
NO_CHARGES


@<TRIPOS>ATOM
   1 C1             1.8633     1.4228     1.0530 C.ar    
   2 C2             1.8898     0.0426     1.0199 C.ar    
   3 C3             1.1346    -0.6427     0.0764 C.ar    
   4 C4             0.3553     0.0636    -0.8308 C.ar    
   5 C5             0.3335     1.4441    -0.7922 C.ar    
   6 C6             1.0862     2.1230     0.1481 C.ar    
   7 N7             1.1594    -2.0387     0.0398 N.3     
   8 C8             1.7471    -2.5223    -1.2173 C.3     
   9 C9            -0.1866    -2.5947     0.2368 C.3     
  10 C10           -0.1047    -4.1227     0.2696 C.3     
  11 N11            0.4830    -4.6062    -0.9876 N.3     
  12 C12            1.8290    -4.0503    -1.1845 C.3     
  13 C13            0.5077    -5.9979    -1.0240 C.ar    
  14 C14            1.2117    -6.7050    -0.0565 C.ar    
  15 C15           -0.1805    -6.6822    -2.0304 C.ar    
  16 C16           -0.1561    -8.0634    -2.0659 C.ar    
  17 C17            0.5572    -8.7721    -1.0946 C.ar    
  18 C18            1.2385    -8.0819    -0.0885 C.ar    
  19 N19           -0.8944    -5.9685    -3.0014 N.am    
  20 C20           -0.9739    -6.4399    -4.2615 C.2     
  21 C21           -1.6385    -5.6363    -5.3117 C.ar    
  22 O22           -0.4999    -7.5251    -4.5355 O.2     
  23 C23            0.5861   -10.2467    -1.1286 C.2     
  24 O24           -0.0108   -10.8465    -2.0018 O.2     
  25 N25            1.2741   -10.9290    -0.1917 N.am    
  26 C26           -1.7209    -6.1245    -6.6167 C.ar    
  27 C27            2.7372    -0.7194     2.0059 C.3     
  28 C28           -2.3401    -5.3764    -7.5944 C.ar    
  29 C29           -2.8849    -4.1306    -7.2797 C.ar    
  30 C30           -2.8025    -3.6424    -5.9749 C.ar    
  31 C31           -2.1879    -4.3928    -4.9959 C.ar    
  32 C32           -3.5496    -3.3269    -8.3301 C.2     
  33 O33           -3.6209    -3.7518    -9.4664 O.2     
  34 N34           -4.0756    -2.1238    -8.0262 N.am    
  35 C35            1.3028   -12.3933    -0.2255 C.3     
  36 C36            2.1467   -12.9138     0.9398 C.3     
  37 C37            2.1766   -14.4431     0.9046 C.3     
  38 N38            2.9847   -14.9415     2.0203 N.am    
  39 C39            2.4977   -15.2325     3.2389 C.2     
  40 C40            4.4288   -15.1933     1.9492 C.3     
  41 C41            4.9057   -15.2742     3.4164 C.3     
  42 C42            3.6117   -15.7109     4.1438 C.3     
  43 O43            1.3345   -15.1264     3.5656 O.2     
  44 H44            2.4466     1.9560     1.7891 H       
  45 H45           -0.2326    -0.4661    -1.5658 H       
  46 H46           -0.2723     1.9939    -1.4973 H       
  47 H47            1.0671     3.2024     0.1764 H       
  48 H48            1.1231    -2.2094    -2.0544 H       
  49 H49            2.7481    -2.1069    -1.3343 H       
  50 H50           -0.5954    -2.2321     1.1799 H       
  51 H51           -0.8326    -2.2827    -0.5839 H       
  52 H52            0.5193    -4.4355     1.1067 H       
  53 H53           -1.1056    -4.5380     0.3865 H       
  54 H54            2.2378    -4.4128    -2.1276 H       
  55 H55            2.4750    -4.3623    -0.3639 H       
  56 H56            1.7393    -6.1738     0.7219 H       
  57 H57           -0.6872    -8.5943    -2.8421 H       
  58 H58            1.7898    -8.6284     0.6624 H       
  59 H59           -1.3315    -5.1349    -2.7670 H       
  60 H60            1.7502   -10.4505     0.5048 H       
  61 H61           -1.2990    -7.0884    -6.8603 H       
  62 H62            2.1803    -0.8583     2.9326 H       
  63 H63            2.9951    -1.6924     1.5876 H       
  64 H64            3.6492    -0.1587     2.2107 H       
  65 H65           -2.4036    -5.7540    -8.6042 H       
  66 H66           -3.2241    -2.6783    -5.7314 H       
  67 H67           -2.1245    -4.0151    -3.9861 H       
  68 H68           -4.0187    -1.7846    -7.1192 H       
  69 H69           -4.5112    -1.5971    -8.7145 H       
  70 H70            0.2868   -12.7787    -0.1389 H       
  71 H71            1.7388   -12.7266    -1.1672 H       
  72 H72            3.1626   -12.5284     0.8532 H       
  73 H73            1.7106   -12.5806     1.8815 H       
  74 H74            1.1607   -14.8285     0.9911 H       
  75 H75            2.6127   -14.7764    -0.0372 H       
  76 H76            4.6227   -16.1357     1.4371 H       
  77 H77            4.9297   -14.3734     1.4345 H       
  78 H78            5.6881   -16.0243     3.5314 H       
  79 H79            5.2456   -14.3008     3.7703 H       
  80 H80            3.5426   -15.2314     5.1202 H       
  81 H81            3.5797   -16.7955     4.2472 H       
@<TRIPOS>BOND
   1    1    2 ar
   2    1    6 ar
   3    1   44 1
   4    2    3 ar
   5    2   27 1
   6    3    4 ar
   7    3    7 1
   8    4    5 ar
   9    4   45 1
  10    5    6 ar
  11    5   46 1
  12    6   47 1
  13    7    8 1
  14    7    9 1
  15    8   12 1
  16    8   48 1
  17    8   49 1
  18    9   10 1
  19    9   50 1
  20    9   51 1
  21   10   11 1
  22   10   52 1
  23   10   53 1
  24   11   12 1
  25   11   13 1
  26   12   54 1
  27   12   55 1
  28   13   14 ar
  29   13   15 ar
  30   14   18 ar
  31   14   56 1
  32   15   16 ar
  33   15   19 1
  34   16   17 ar
  35   16   57 1
  36   17   18 ar
  37   17   23 1
  38   18   58 1
  39   19   20 am
  40   19   59 1
  41   20   21 1
  42   20   22 2
  43   21   26 ar
  44   21   31 ar
  45   23   24 2
  46   23   25 am
  47   25   35 1
  48   25   60 1
  49   26   28 ar
  50   26   61 1
  51   27   62 1
  52   27   63 1
  53   27   64 1
  54   28   29 ar
  55   28   65 1
  56   29   30 ar
  57   29   32 1
  58   30   31 ar
  59   30   66 1
  60   31   67 1
  61   32   33 2
  62   32   34 am
  63   34   68 1
  64   34   69 1
  65   35   36 1
  66   35   70 1
  67   35   71 1
  68   36   37 1
  69   36   72 1
  70   36   73 1
  71   37   38 1
  72   37   74 1
  73   37   75 1
  74   38   39 am
  75   38   40 1
  76   39   43 2
  77   39   42 1
  78   40   41 1
  79   40   76 1
  80   40   77 1
  81   41   42 1
  82   41   78 1
  83   41   79 1
  84   42   80 1
  85   42   81 1

#	End of record

