#	Name: ASD01901360
#	Creating user name:	WinNT
#	Creation time:	15. 06. 2019 19:53

#	Modifying user name:	WinNT
#	Modification time:	15. 06. 2019 19:53

#	Program:	/corina/corina34_cracker 3.40 0067  02.08.2006

@<TRIPOS>MOLECULE
ASD01901360
  39   42    0    0    0
SMALL
NO_CHARGES


@<TRIPOS>ATOM
   1 C1            -0.0168     1.3889     0.0097 C.ar    
   2 C2             1.1742     2.0941     0.0021 C.ar    
   3 C3             2.3856     1.4121    -0.0131 C.ar    
   4 C4             2.4041     0.0285    -0.0207 C.ar    
   5 C5             1.2195    -0.6810    -0.0132 C.ar    
   6 C6             0.0021    -0.0041     0.0020 C.ar    
   7 C7            -1.2721    -0.7652     0.0106 C.2     
   8 N8            -3.2659    -1.3665     1.1231 N.2     
   9 C9            -2.1421    -0.6922     1.1201 C.2     
  10 C10           -1.6224    -1.5423    -1.0579 C.2     
  11 N11           -2.7999    -2.2285    -1.0175 N.pl3   
  12 C12           -3.6151    -2.1359     0.0811 C.2     
  13 C13           -3.4139    -3.0684    -1.9071 C.2     
  14 C14           -4.5739    -3.4653    -1.3420 C.2     
  15 N15           -4.6801    -2.8937    -0.1388 N.2     
  16 C16           -5.5808    -4.3982    -1.9641 C.3     
  17 O17           -5.1202    -4.8043    -3.2544 O.3     
  18 C18           -5.9177    -5.6534    -3.9554 C.ar    
  19 C19           -7.1210    -6.0814    -3.4141 C.ar    
  20 C20           -5.5316    -6.0878    -5.2148 C.ar    
  21 C21           -6.3433    -6.9502    -5.9262 C.ar    
  22 C22           -7.5418    -7.3805    -5.3827 C.ar    
  23 C23           -7.9307    -6.9438    -4.1277 C.ar    
  24 F24            3.5473     2.1017    -0.0210 F       
  25 F25           -8.3350    -8.2231    -6.0798 F       
  26 O26            1.1594     3.4536     0.0091 O.3     
  27 H27           -0.9586     1.9174     0.0260 H       
  28 H28            3.3472    -0.4976    -0.0329 H       
  29 H29            1.2368    -1.7609    -0.0192 H       
  30 H30           -1.8805    -0.0787     1.9695 H       
  31 H31           -0.9766    -1.6114    -1.9208 H       
  32 H32           -3.0409    -3.3585    -2.8782 H       
  33 H33           -5.7036    -5.2758    -1.3294 H       
  34 H34           -6.5375    -3.8856    -2.0645 H       
  35 H35           -7.4246    -5.7410    -2.4352 H       
  36 H36           -4.5971    -5.7518    -5.6392 H       
  37 H37           -6.0429    -7.2886    -6.9068 H       
  38 H38           -8.8676    -7.2773    -3.7065 H       
  39 H39            1.1634     3.8424     0.8945 H       
@<TRIPOS>BOND
   1    1    6 ar
   2    1    2 ar
   3    1   27 1
   4    2    3 ar
   5    2   26 1
   6    3    4 ar
   7    3   24 1
   8    4    5 ar
   9    4   28 1
  10    5    6 ar
  11    5   29 1
  12    6    7 1
  13    7   10 2
  14    7    9 1
  15    8    9 2
  16    8   12 1
  17    9   30 1
  18   10   11 1
  19   10   31 1
  20   11   13 1
  21   11   12 1
  22   12   15 2
  23   13   14 2
  24   13   32 1
  25   14   15 1
  26   14   16 1
  27   16   17 1
  28   16   33 1
  29   16   34 1
  30   17   18 1
  31   18   20 ar
  32   18   19 ar
  33   19   23 ar
  34   19   35 1
  35   20   21 ar
  36   20   36 1
  37   21   22 ar
  38   21   37 1
  39   22   23 ar
  40   22   25 1
  41   23   38 1
  42   26   39 1

#	End of record

