#	Name: ASD08150273
#	Creating user name:	WinNT
#	Creation time:	15. 06. 2019 21:15

#	Modifying user name:	WinNT
#	Modification time:	15. 06. 2019 21:15

#	Program:	/corina/corina34_cracker 3.40 0067  02.08.2006

@<TRIPOS>MOLECULE
ASD08150273
  68   69    0    0    0
SMALL
NO_CHARGES


@<TRIPOS>ATOM
   1 C1            -0.6493     0.3245     3.0448 C.2     
   2 N2            -0.5280    -0.7817     2.2846 N.am    
   3 O3             0.3272     1.0065     3.2854 O.2     
   4 O4            -1.8535     0.6770     3.5332 O.3     
   5 C5             0.7812    -1.1620     1.7482 C.3     
   6 C6             1.5445    -1.9757     2.7952 C.3     
   7 C7             1.8449    -1.0926     4.0079 C.3     
   8 O8             2.5578    -1.8526     4.9857 O.3     
   9 C9             0.5898    -2.0059     0.4865 C.3     
  10 O10           -0.0503    -3.2367     0.8292 O.3     
  11 Si11          -0.3505    -4.2062    -0.4475 Si      
  12 C12           -1.6185    -5.4916     0.0313 C.ar    
  13 C13           -2.7900    -5.6103    -0.6929 C.ar    
  14 C14           -3.7284    -6.5614    -0.3386 C.ar    
  15 C15           -3.4951    -7.3942     0.7398 C.ar    
  16 C16           -2.3233    -7.2762     1.4636 C.ar    
  17 C17           -1.3830    -6.3279     1.1065 C.ar    
  18 C18           -1.0063    -3.1828    -1.8660 C.ar    
  19 C19           -2.3438    -2.8360    -1.9076 C.ar    
  20 C20           -2.8291    -2.0787    -2.9573 C.ar    
  21 C21           -1.9768    -1.6678    -3.9651 C.ar    
  22 C22           -0.6392    -2.0139    -3.9231 C.ar    
  23 C23           -0.1530    -2.7676    -2.8711 C.ar    
  24 C24            1.2252    -5.0525    -0.9688 C.3     
  25 C25            1.5848    -6.1343     0.0516 C.3     
  26 C26            1.0290    -5.6935    -2.3441 C.3     
  27 C27            2.3561    -4.0245    -1.0420 C.3     
  28 C28           -1.9095     1.8802     4.3440 C.3     
  29 C29           -1.4358     3.0761     3.5155 C.3     
  30 C30           -3.3487     2.1176     4.8056 C.3     
  31 C31           -1.0029     1.7148     5.5654 C.3     
  32 H32           -1.3075    -1.3262     2.0926 H       
  33 H33            1.3478    -0.2639     1.5022 H       
  34 H34            0.9386    -2.8266     3.1065 H       
  35 H35            2.4802    -2.3337     2.3657 H       
  36 H36            2.4508    -0.2417     3.6965 H       
  37 H37            0.9092    -0.7346     4.4374 H       
  38 H38            2.7822    -1.3549     5.7838 H       
  39 H39           -0.0296    -1.4601    -0.2252 H       
  40 H40            1.5612    -2.2141     0.0378 H       
  41 H41           -2.9722    -4.9596    -1.5355 H       
  42 H42           -4.6439    -6.6537    -0.9040 H       
  43 H43           -4.2286    -8.1369     1.0172 H       
  44 H44           -2.1412    -7.9266     2.3063 H       
  45 H45           -0.4658    -6.2381     1.6697 H       
  46 H46           -3.0096    -3.1570    -1.1202 H       
  47 H47           -3.8742    -1.8083    -2.9902 H       
  48 H48           -2.3561    -1.0768    -4.7856 H       
  49 H49            0.0266    -1.6932    -4.7106 H       
  50 H50            0.8929    -3.0348    -2.8363 H       
  51 H51            0.7517    -6.8300     0.1523 H       
  52 H52            2.4695    -6.6735    -0.2870 H       
  53 H53            1.7892    -5.6702     1.0164 H       
  54 H54            0.8880    -4.9132    -3.0919 H       
  55 H55            1.9084    -6.2854    -2.5979 H       
  56 H56            0.1507    -6.3388    -2.3222 H       
  57 H57            2.5939    -3.6738    -0.0377 H       
  58 H58            3.2389    -4.4863    -1.4841 H       
  59 H59            2.0411    -3.1809    -1.6563 H       
  60 H60           -2.0816     3.1939     2.6453 H       
  61 H61           -1.4778     3.9793     4.1241 H       
  62 H62           -0.4104     2.9069     3.1866 H       
  63 H63           -3.6862     1.2657     5.3959 H       
  64 H64           -3.3908     3.0209     5.4143 H       
  65 H65           -3.9946     2.2355     3.9355 H       
  66 H66            0.0225     1.5457     5.2365 H       
  67 H67           -1.0449     2.6181     6.1740 H       
  68 H68           -1.3404     0.8629     6.1556 H       
@<TRIPOS>BOND
   1    1    2 am
   2    1    3 2
   3    1    4 1
   4    2    5 1
   5    2   32 1
   6    4   28 1
   7    5    6 1
   8    5    9 1
   9    5   33 1
  10    6    7 1
  11    6   34 1
  12    6   35 1
  13    7    8 1
  14    7   36 1
  15    7   37 1
  16    8   38 1
  17    9   10 1
  18    9   39 1
  19    9   40 1
  20   10   11 1
  21   11   12 1
  22   11   18 1
  23   11   24 1
  24   12   13 ar
  25   12   17 ar
  26   13   14 ar
  27   13   41 1
  28   14   15 ar
  29   14   42 1
  30   15   16 ar
  31   15   43 1
  32   16   17 ar
  33   16   44 1
  34   17   45 1
  35   18   19 ar
  36   18   23 ar
  37   19   20 ar
  38   19   46 1
  39   20   21 ar
  40   20   47 1
  41   21   22 ar
  42   21   48 1
  43   22   23 ar
  44   22   49 1
  45   23   50 1
  46   24   25 1
  47   24   27 1
  48   24   26 1
  49   25   51 1
  50   25   52 1
  51   25   53 1
  52   26   54 1
  53   26   55 1
  54   26   56 1
  55   27   57 1
  56   27   58 1
  57   27   59 1
  58   28   29 1
  59   28   31 1
  60   28   30 1
  61   29   60 1
  62   29   61 1
  63   29   62 1
  64   30   63 1
  65   30   64 1
  66   30   65 1
  67   31   66 1
  68   31   67 1
  69   31   68 1

#	End of record

