#	Name: ASD01148085
#	Creating user name:	WinNT
#	Creation time:	15. 06. 2019 19:02

#	Modifying user name:	WinNT
#	Modification time:	15. 06. 2019 19:02

#	Program:	/corina/corina34_cracker 3.40 0067  02.08.2006

@<TRIPOS>MOLECULE
ASD01148085
  43   46    0    0    0
SMALL
NO_CHARGES


@<TRIPOS>ATOM
   1 C1             0.1173     1.6830     0.0340 C.3     
   2 C2             0.1542     0.1540     0.0733 C.3     
   3 C3             0.9312    -0.3059     1.3085 C.3     
   4 O4            -1.1803    -0.3533     0.1338 O.3     
   5 C5             1.8040    -3.1847    -4.5641 C.2     
   6 N6             0.9757    -3.2105    -3.5614 N.2     
   7 C7             1.1031    -2.0715    -2.8324 C.ar    
   8 C8             2.0957    -1.2949    -3.4540 C.ar    
   9 N9             2.5216    -2.0256    -4.5484 N.pl3   
  10 C10            0.4743    -1.5902    -1.6815 C.ar    
  11 C11            0.8327    -0.3642    -1.1686 C.ar    
  12 C12            1.8134     0.3985    -1.7861 C.ar    
  13 C13            2.4437    -0.0614    -2.9231 C.ar    
  14 C14            5.4985    -2.0972    -6.7200 C.ar    
  15 C15            4.5404    -2.5135    -5.8009 C.ar    
  16 C16            3.5050    -1.6465    -5.4671 C.ar    
  17 C17            3.4716    -0.3900    -6.0716 C.ar    
  18 C18            4.4582    -0.0487    -6.9743 C.ar    
  19 N19            5.4275    -0.8917    -7.2710 N.ar    
  20 C20            6.9524    -3.2136    -8.4200 C.ar    
  21 C21            6.6128    -3.0066    -7.0827 C.ar    
  22 C22            7.3398    -3.6694    -6.0909 C.ar    
  23 C23            8.3710    -4.5073    -6.4813 C.ar    
  24 C24            8.6463    -4.6601    -7.8274 C.ar    
  25 N25            7.9429    -4.0213    -8.7427 N.ar    
  26 Cl26           6.0583    -2.4062    -9.6699 Cl      
  27 H27            1.1353     2.0700    -0.0122 H       
  28 H28           -0.4362     2.0106    -0.8460 H       
  29 H29           -0.3734     2.0578     0.9322 H       
  30 H30            0.4404     0.0689     2.2067 H       
  31 H31            0.9575    -1.3952     1.3365 H       
  32 H32            1.9491     0.0811     1.2623 H       
  33 H33           -1.7318    -0.1004    -0.6192 H       
  34 H34            1.9108    -3.9689    -5.2989 H       
  35 H35           -0.2903    -2.1783    -1.1956 H       
  36 H36            2.0847     1.3591    -1.3738 H       
  37 H37            3.2061     0.5373    -3.3993 H       
  38 H38            4.5995    -3.4948    -5.3537 H       
  39 H39            2.6820     0.3082    -5.8361 H       
  40 H40            4.4357     0.9232    -7.4449 H       
  41 H41            7.1038    -3.5317    -5.0461 H       
  42 H42            8.9544    -5.0355    -5.7417 H       
  43 H43            9.4502    -5.3126    -8.1346 H       
@<TRIPOS>BOND
   1    1    2 1
   2    1   27 1
   3    1   28 1
   4    1   29 1
   5    2    3 1
   6    2    4 1
   7    2   11 1
   8    3   30 1
   9    3   31 1
  10    3   32 1
  11    4   33 1
  12    5    6 2
  13    5    9 1
  14    5   34 1
  15    6    7 1
  16    7    8 ar
  17    7   10 ar
  18    8    9 1
  19    8   13 ar
  20    9   16 1
  21   10   11 ar
  22   10   35 1
  23   11   12 ar
  24   12   13 ar
  25   12   36 1
  26   13   37 1
  27   14   15 ar
  28   14   19 ar
  29   14   21 1
  30   15   16 ar
  31   15   38 1
  32   16   17 ar
  33   17   18 ar
  34   17   39 1
  35   18   19 ar
  36   18   40 1
  37   20   21 ar
  38   20   25 ar
  39   20   26 1
  40   21   22 ar
  41   22   23 ar
  42   22   41 1
  43   23   24 ar
  44   23   42 1
  45   24   25 ar
  46   24   43 1

#	End of record

