#	Name: ASD08150093
#	Creating user name:	WinNT
#	Creation time:	15. 06. 2019 21:15

#	Modifying user name:	WinNT
#	Modification time:	15. 06. 2019 21:15

#	Program:	/corina/corina34_cracker 3.40 0067  02.08.2006

@<TRIPOS>MOLECULE
ASD08150093
  42   46    0    0    0
SMALL
NO_CHARGES


@<TRIPOS>ATOM
   1 N1             0.0389     1.3214    -0.3177 N.2     
   2 C2             0.0799     0.0352    -0.4907 C.2     
   3 N3             1.1787    -0.7206    -0.2221 N.am    
   4 C4             2.3098    -0.1475     0.2510 C.2     
   5 C5             2.2959     1.3080     0.4574 C.ar    
   6 C6             3.4083     1.9942     0.9410 C.ar    
   7 C7             3.3406     3.3589     1.1161 C.ar    
   8 C8             2.1755     4.0527     0.8156 C.ar    
   9 C9             1.0655     3.3937     0.3374 C.ar    
  10 C10            1.1093     2.0104     0.1508 C.ar    
  11 O11            3.3001    -0.8115     0.4965 O.2     
  12 C12           -1.1525    -0.6555    -1.0153 C.3     
  13 S13           -2.4072     0.5816    -1.4297 S.3     
  14 N14           -5.4246     1.3146    -2.5647 N.2     
  15 C15           -6.6340     1.2507    -3.0416 C.2     
  16 N16           -6.9813    -0.0498    -3.2569 N.pl3   
  17 C17           -5.9133    -0.8274    -2.8867 C.ar    
  18 N18           -5.6641    -2.1329    -2.8695 N.ar    
  19 C19           -4.5047    -2.5895    -2.4444 C.ar    
  20 N20           -3.5416    -1.7926    -2.0197 N.ar    
  21 C21           -3.6992    -0.4722    -1.9999 C.ar    
  22 C22           -4.9208     0.0632    -2.4442 C.ar    
  23 C23            1.1389    -2.1044    -0.4367 C.ar    
  24 C24            0.7184    -2.9538     0.5782 C.ar    
  25 C25            0.6796    -4.3175     0.3640 C.ar    
  26 C26            1.0597    -4.8379    -0.8607 C.ar    
  27 C27            1.4792    -3.9935    -1.8738 C.ar    
  28 C28            1.5143    -2.6286    -1.6665 C.ar    
  29 Cl29           1.0109    -6.5527    -1.1264 Cl      
  30 H30            4.3167     1.4599     1.1770 H       
  31 H31            4.2008     3.8939     1.4907 H       
  32 H32            2.1398     5.1225     0.9593 H       
  33 H33            0.1649     3.9438     0.1079 H       
  34 H34           -0.8968    -1.2267    -1.9077 H       
  35 H35           -1.5441    -1.3287    -0.2527 H       
  36 H36           -7.2686     2.1023    -3.2377 H       
  37 H37           -7.8282    -0.3673    -3.6075 H       
  38 H38           -4.3350    -3.6561    -2.4432 H       
  39 H39            0.4223    -2.5482     1.5344 H       
  40 H40            0.3527    -4.9785     1.1531 H       
  41 H41            1.7756    -4.4021    -2.8285 H       
  42 H42            1.8375    -1.9697    -2.4589 H       
@<TRIPOS>BOND
   1    1    2 2
   2    1   10 1
   3    2    3 1
   4    2   12 1
   5    3    4 am
   6    3   23 1
   7    4    5 1
   8    4   11 2
   9    5    6 ar
  10    5   10 ar
  11    6    7 ar
  12    6   30 1
  13    7    8 ar
  14    7   31 1
  15    8    9 ar
  16    8   32 1
  17    9   10 ar
  18    9   33 1
  19   12   13 1
  20   12   34 1
  21   12   35 1
  22   13   21 1
  23   14   15 2
  24   14   22 1
  25   15   16 1
  26   15   36 1
  27   16   17 1
  28   16   37 1
  29   17   18 ar
  30   17   22 ar
  31   18   19 ar
  32   19   20 ar
  33   19   38 1
  34   20   21 ar
  35   21   22 ar
  36   23   24 ar
  37   23   28 ar
  38   24   25 ar
  39   24   39 1
  40   25   26 ar
  41   25   40 1
  42   26   27 ar
  43   26   29 1
  44   27   28 ar
  45   27   41 1
  46   28   42 1

#	End of record

