#	Name: ASD05720115
#	Creating user name:	WinNT
#	Creation time:	15. 06. 2019 21:01

#	Modifying user name:	WinNT
#	Modification time:	15. 06. 2019 21:01

#	Program:	/corina/corina34_cracker 3.40 0067  02.08.2006

@<TRIPOS>MOLECULE
ASD05720115
  49   54    0    0    0
SMALL
NO_CHARGES


@<TRIPOS>ATOM
   1 O1            -0.0162     1.3453     0.0094 O.3     
   2 C2             0.0021    -0.0041     0.0020 C.2     
   3 N3             1.1512    -0.5027    -0.4890 N.am    
   4 C4             2.0957     0.6239    -0.6995 C.3     
   5 C5             1.3743     1.7726    -0.0015 C.3     
   6 C6             1.5922     3.1539    -0.5157 C.3     
   7 C7             1.8090     3.2795    -2.0099 C.3     
   8 C8             2.7946     2.2188    -2.4975 C.3     
   9 C9             2.1978     0.8420    -2.2088 C.3     
  10 O10           -0.9178    -0.6930     0.3961 O.2     
  11 C11            2.8488    -3.4872    -1.4961 C.2     
  12 N12            2.5835    -2.2033    -1.2358 N.2     
  13 C13            1.4098    -1.8412    -0.7532 C.2     
  14 C14            0.4186    -2.8126    -0.5054 C.2     
  15 C15            0.6838    -4.1126    -0.7672 C.2     
  16 N16            1.9089    -4.4569    -1.2672 N.pl3   
  17 N17            2.4645    -5.6892    -1.6293 N.2     
  18 C18            3.6871    -5.5022    -2.0621 C.2     
  19 C19            3.9821    -4.1345    -2.0065 C.2     
  20 C20            5.2535    -3.4928    -2.4094 C.ar    
  21 C21            6.4683    -3.9912    -1.9351 C.ar    
  22 C22            7.6508    -3.3938    -2.3103 C.ar    
  23 C23            7.6351    -2.2908    -3.1640 C.ar    
  24 C24            6.4218    -1.7924    -3.6382 C.ar    
  25 C25            5.2389    -2.3924    -3.2684 C.ar    
  26 N26           10.3971    -0.3323    -4.4732 N.pl3   
  27 N27            9.0242    -0.6067    -4.3634 N.2     
  28 C28            8.9091    -1.6476    -3.5673 C.2     
  29 N29           10.1340    -2.0297    -3.1805 N.2     
  30 C30           11.0318    -1.2472    -3.7185 C.2     
  31 H31            3.0666     0.4259    -0.2453 H       
  32 H32            1.7090     1.7703     1.0358 H       
  33 H33            0.7258     3.7578    -0.2458 H       
  34 H34            2.4623     3.5719    -0.0095 H       
  35 H35            0.8568     3.1502    -2.5244 H       
  36 H36            2.2050     4.2699    -2.2346 H       
  37 H37            2.9560     2.3321    -3.5695 H       
  38 H38            3.7419     2.3269    -1.9692 H       
  39 H39            2.8360     0.0726    -2.6433 H       
  40 H40            1.2039     0.7783    -2.6518 H       
  41 H41           -0.5432    -2.5213    -0.1099 H       
  42 H42           -0.0635    -4.8703    -0.5832 H       
  43 H43            4.3564    -6.2758    -2.4085 H       
  44 H44            6.4806    -4.8450    -1.2738 H       
  45 H45            8.5906    -3.7790    -1.9432 H       
  46 H46            6.4104    -0.9383    -4.2992 H       
  47 H47            4.2998    -2.0093    -3.6395 H       
  48 H48           10.8075     0.3755    -4.9943 H       
  49 H49           12.1003    -1.3225    -3.5811 H       
@<TRIPOS>BOND
   1    1    2 1
   2    1    5 1
   3    2    3 am
   4    2   10 2
   5    3    4 1
   6    3   13 1
   7    4    5 1
   8    4    9 1
   9    4   31 1
  10    5    6 1
  11    5   32 1
  12    6    7 1
  13    6   33 1
  14    6   34 1
  15    7    8 1
  16    7   35 1
  17    7   36 1
  18    8    9 1
  19    8   37 1
  20    8   38 1
  21    9   39 1
  22    9   40 1
  23   11   12 1
  24   11   16 1
  25   11   19 2
  26   12   13 2
  27   13   14 1
  28   14   15 2
  29   14   41 1
  30   15   16 1
  31   15   42 1
  32   16   17 1
  33   17   18 2
  34   18   19 1
  35   18   43 1
  36   19   20 1
  37   20   21 ar
  38   20   25 ar
  39   21   22 ar
  40   21   44 1
  41   22   23 ar
  42   22   45 1
  43   23   24 ar
  44   23   28 1
  45   24   25 ar
  46   24   46 1
  47   25   47 1
  48   26   27 1
  49   26   30 1
  50   26   48 1
  51   27   28 2
  52   28   29 1
  53   29   30 2
  54   30   49 1

#	End of record

