#	Name: ASD01914803
#	Creating user name:	WinNT
#	Creation time:	15. 06. 2019 20:04

#	Modifying user name:	WinNT
#	Modification time:	15. 06. 2019 20:04

#	Program:	/corina/corina34_cracker 3.40 0067  02.08.2006

@<TRIPOS>MOLECULE
ASD01914803
  41   42    0    0    0
SMALL
NO_CHARGES


@<TRIPOS>ATOM
   1 N1            -0.0169     1.3963     0.0097 N.pl3   
   2 N2             0.0021    -0.0041     0.0020 N.2     
   3 C3             1.2577    -0.4001    -0.0121 C.2     
   4 C4             2.0794     0.7485    -0.0138 C.2     
   5 C5             1.2701     1.8363    -0.0002 C.2     
   6 S6             3.8412     0.7649    -0.0296 S.3     
   7 C7            -1.2144     2.2403     0.0202 C.3     
   8 O8            -0.8276     3.6159     0.0252 O.3     
   9 C9            -1.9269     4.5288     0.0356 C.3     
  10 C10           -1.3978     5.9643     0.0401 C.3     
  11 Si11          -2.8311     7.1544     0.0536 Si      
  12 C12           -3.8619     6.8677     1.5787 C.3     
  13 C13           -2.1867     8.9025     0.0592 C.3     
  14 C14           -3.8778     6.8832    -1.4635 C.3     
  15 C15            2.8777    -2.1640    -0.7247 C.ar    
  16 C16            1.7273    -1.8071    -0.0237 C.ar    
  17 C17            1.0235    -2.7963     0.6685 C.ar    
  18 C18            1.5033    -4.0943     0.6268 C.ar    
  19 C19            2.6526    -4.3680    -0.0916 C.ar    
  20 N20            3.2956    -3.4130    -0.7357 N.ar    
  21 H21            1.5902     2.8678     0.0023 H       
  22 H22            4.1319     0.7743    -1.3428 H       
  23 H23           -1.8120     2.0341    -0.8677 H       
  24 H24           -1.8027     2.0250     0.9122 H       
  25 H25           -2.5394     4.3701    -0.8520 H       
  26 H26           -2.5301     4.3610     0.9279 H       
  27 H27           -0.7854     6.1230     0.9277 H       
  28 H28           -0.7947     6.1321    -0.8522 H       
  29 H29           -3.2495     7.0264     2.4663 H       
  30 H30           -4.7005     7.5640     1.5866 H       
  31 H31           -4.2389     5.8450     1.5755 H       
  32 H32           -1.5836     9.0702    -0.8331 H       
  33 H33           -3.0253     9.5988     0.0671 H       
  34 H34           -1.5743     9.0612     0.9468 H       
  35 H35           -4.2547     5.8605    -1.4667 H       
  36 H36           -4.7163     7.5795    -1.4556 H       
  37 H37           -3.2746     7.0509    -2.3558 H       
  38 H38            3.4289    -1.4105    -1.2677 H       
  39 H39            0.1284    -2.5543     1.2222 H       
  40 H40            0.9856    -4.8846     1.1501 H       
  41 H41            3.0296    -5.3794    -0.1262 H       
@<TRIPOS>BOND
   1    1    2 1
   2    1    5 1
   3    1    7 1
   4    2    3 2
   5    3    4 1
   6    3   16 1
   7    4    5 2
   8    4    6 1
   9    5   21 1
  10    6   22 1
  11    7    8 1
  12    7   23 1
  13    7   24 1
  14    8    9 1
  15    9   10 1
  16    9   25 1
  17    9   26 1
  18   10   11 1
  19   10   27 1
  20   10   28 1
  21   11   12 1
  22   11   13 1
  23   11   14 1
  24   12   29 1
  25   12   30 1
  26   12   31 1
  27   13   32 1
  28   13   33 1
  29   13   34 1
  30   14   35 1
  31   14   36 1
  32   14   37 1
  33   15   16 ar
  34   15   20 ar
  35   15   38 1
  36   16   17 ar
  37   17   18 ar
  38   17   39 1
  39   18   19 ar
  40   18   40 1
  41   19   20 ar
  42   19   41 1

#	End of record

