#	Name: ASD06140028
#	Creating user name:	WinNT
#	Creation time:	15. 06. 2019 21:05

#	Modifying user name:	WinNT
#	Modification time:	15. 06. 2019 21:05

#	Program:	/corina/corina34_cracker 3.40 0067  02.08.2006

@<TRIPOS>MOLECULE
ASD06140028
  27   28    0    0    0
SMALL
NO_CHARGES


@<TRIPOS>ATOM
   1 C1            -0.0184     1.5068     0.0103 C.2     
   2 C2             0.0021    -0.0041     0.0020 C.3     
   3 C3             0.7049    -0.5400     1.2509 C.3     
   4 C4             0.8199    -2.0397     1.1580 C.ar    
   5 C5             1.8793    -2.6108     0.4784 C.ar    
   6 C6             1.9848    -3.9867     0.3932 C.ar    
   7 C7             1.0310    -4.7911     0.9879 C.ar    
   8 C8            -0.0282    -4.2198     1.6685 C.ar    
   9 C9            -0.1313    -2.8444     1.7574 C.ar    
  10 S10           -1.7649    -0.4552     0.0164 S.3     
  11 C11           -2.3363     1.2226     0.0309 C.2     
  12 N12           -1.2311     2.0331     0.0304 N.am    
  13 O13            0.9908     2.1788     0.0043 O.2     
  14 N14           -3.5790     1.6136     0.0448 N.2     
  15 C15            2.9192    -1.7338    -0.1700 C.3     
  16 F16            3.8829    -2.5349    -0.7919 F       
  17 F17            2.3080    -0.9137    -1.1246 F       
  18 F18            3.5319    -0.9386     0.8043 F       
  19 H19            0.4881    -0.3762    -0.8998 H       
  20 H20            1.7009    -0.1030     1.3230 H       
  21 H21            0.1265    -0.2740     2.1357 H       
  22 H22            2.8122    -4.4330    -0.1384 H       
  23 H23            1.1131    -5.8659     0.9207 H       
  24 H24           -0.7736    -4.8484     2.1329 H       
  25 H25           -0.9587    -2.3982     2.2890 H       
  26 H26           -1.3391     2.9970     0.0378 H       
  27 H27           -3.7894     2.5605     0.0519 H       
@<TRIPOS>BOND
   1    1    2 1
   2    1   13 2
   3    1   12 am
   4    2    3 1
   5    2   10 1
   6    2   19 1
   7    3    4 1
   8    3   20 1
   9    3   21 1
  10    4    5 ar
  11    4    9 ar
  12    5    6 ar
  13    5   15 1
  14    6    7 ar
  15    6   22 1
  16    7    8 ar
  17    7   23 1
  18    8    9 ar
  19    8   24 1
  20    9   25 1
  21   10   11 1
  22   11   12 1
  23   11   14 2
  24   12   26 1
  25   14   27 1
  26   15   16 1
  27   15   17 1
  28   15   18 1

#	End of record

