#	Name: ASD01908380
#	Creating user name:	WinNT
#	Creation time:	15. 06. 2019 19:55

#	Modifying user name:	WinNT
#	Modification time:	15. 06. 2019 19:55

#	Program:	/corina/corina34_cracker 3.40 0067  02.08.2006

@<TRIPOS>MOLECULE
ASD01908380
  42   45    0    0    0
SMALL
NO_CHARGES


@<TRIPOS>ATOM
   1 C1             0.0815     1.2926    -1.2946 C.ar    
   2 C2             0.0951    -0.0835    -1.1669 C.ar    
   3 C3             1.2852    -0.7376    -0.9243 C.ar    
   4 C4             2.4719    -0.0236    -0.8071 C.ar    
   5 C5             2.4583     1.3468    -0.9342 C.ar    
   6 C6             1.2580     2.0035    -1.1787 C.ar    
   7 S7             4.1068    -0.6113    -0.5027 S.o2    
   8 N8             5.0915     0.7245    -0.4737 N.am    
   9 S9             4.0809     2.0124    -0.7462 S.o2    
  10 C10            6.4720     0.7575    -0.2643 C.ar    
  11 C11            7.1470     1.9703    -0.2716 C.ar    
  12 C12            7.1704    -0.4231    -0.0428 C.ar    
  13 C13            8.5361    -0.3910     0.1648 C.ar    
  14 C14            9.2116     0.8139     0.1524 C.ar    
  15 C15            8.5183     1.9988    -0.0633 C.ar    
  16 O16            4.4450     2.5506    -2.0099 O.2     
  17 O17            4.0675     2.7754     0.4526 O.2     
  18 O18            4.1062    -1.1407     0.8160 O.2     
  19 O19            4.4838    -1.3655    -1.6465 O.2     
  20 N20            9.2030     3.2181    -0.0756 N.am    
  21 C21           10.4489     3.2863    -0.5852 C.2     
  22 C22           11.1315     4.5898    -0.6930 C.ar    
  23 O23           11.0103     2.2734    -0.9561 O.2     
  24 C24           12.4249     4.6640    -1.2216 C.ar    
  25 C25           13.0578     5.8886    -1.3194 C.ar    
  26 C26           12.4137     7.0390    -0.8954 C.ar    
  27 C27           11.1310     6.9700    -0.3706 C.ar    
  28 C28           10.4869     5.7564    -0.2730 C.ar    
  29 F29           13.0371     8.2336    -0.9928 F       
  30 F30           13.0533     3.5417    -1.6347 F       
  31 H31           -0.8467     1.8094    -1.4890 H       
  32 H32           -0.8231    -0.6449    -1.2564 H       
  33 H33            1.2949    -1.8129    -0.8243 H       
  34 H34            1.2464     3.0788    -1.2790 H       
  35 H35            6.6059     2.8898    -0.4395 H       
  36 H36            6.6452    -1.3667    -0.0326 H       
  37 H37            9.0766    -1.3100     0.3374 H       
  38 H38           10.2791     0.8355     0.3150 H       
  39 H39            8.7813     4.0148     0.2826 H       
  40 H40           14.0562     5.9485    -1.7266 H       
  41 H41           10.6346     7.8709    -0.0415 H       
  42 H42            9.4884     5.7054     0.1355 H       
@<TRIPOS>BOND
   1    1    2 ar
   2    1    6 ar
   3    1   31 1
   4    2    3 ar
   5    2   32 1
   6    3    4 ar
   7    3   33 1
   8    4    5 ar
   9    4    7 1
  10    5    6 ar
  11    5    9 1
  12    6   34 1
  13    7    8 am
  14    7   18 2
  15    7   19 2
  16    8    9 am
  17    8   10 1
  18    9   16 2
  19    9   17 2
  20   10   11 ar
  21   10   12 ar
  22   11   15 ar
  23   11   35 1
  24   12   13 ar
  25   12   36 1
  26   13   14 ar
  27   13   37 1
  28   14   15 ar
  29   14   38 1
  30   15   20 1
  31   20   21 am
  32   20   39 1
  33   21   22 1
  34   21   23 2
  35   22   24 ar
  36   22   28 ar
  37   24   25 ar
  38   24   30 1
  39   25   26 ar
  40   25   40 1
  41   26   27 ar
  42   26   29 1
  43   27   28 ar
  44   27   41 1
  45   28   42 1

#	End of record

