#	Name: ASD06130008
#	Creating user name:	WinNT
#	Creation time:	15. 06. 2019 21:05

#	Modifying user name:	WinNT
#	Modification time:	15. 06. 2019 21:05

#	Program:	/corina/corina34_cracker 3.40 0067  02.08.2006

@<TRIPOS>MOLECULE
ASD06130008
  66   70    0    0    0
SMALL
NO_CHARGES


@<TRIPOS>ATOM
   1 C1             1.0764     0.9818     0.4941 C.ar    
   2 C2             1.0400    -0.4078     0.7026 C.ar    
   3 N3            -0.1906    -0.8279     0.2569 N.pl3   
   4 N4            -0.8583     0.3159    -0.2057 N.2     
   5 N5            -0.1022     1.3450    -0.0501 N.2     
   6 C6             2.2250     1.6974     0.8580 C.ar    
   7 C7             3.2872     1.0407     1.4068 C.ar    
   8 C8             3.2451    -0.3327     1.6103 C.ar    
   9 C9             2.1365    -1.0532     1.2643 C.ar    
  10 C10           -0.7037    -2.2001     0.2633 C.3     
  11 C11           -1.4206    -2.4623     1.5627 C.2     
  12 C12           -1.4441    -5.7614     0.7902 C.ar    
  13 C13           -2.1445    -4.5650     0.7127 C.ar    
  14 N14           -2.0585    -3.6337     1.7559 N.am    
  15 C15           -2.9297    -4.2918    -0.3994 C.ar    
  16 O16           -4.0891    -2.1425     2.4851 O.2     
  17 C17           -3.8059    -2.9853     3.3100 C.2     
  18 C18           -2.6621    -3.9332     3.0568 C.3     
  19 C19           -3.1743    -5.3504     3.0585 C.ar    
  20 C20           -2.7523    -6.2362     4.0324 C.ar    
  21 O21           -1.4235    -1.6191     2.4346 O.2     
  22 C22           -3.2210    -7.5363     4.0347 C.ar    
  23 C23           -1.5289    -6.6786    -0.2385 C.ar    
  24 C24           -2.3135    -6.4050    -1.3493 C.ar    
  25 C25           -3.0135    -5.2099    -1.4274 C.ar    
  26 C26           -4.0703    -5.7622     2.0896 C.ar    
  27 C27           -4.5407    -7.0617     2.0902 C.ar    
  28 C28           -4.1140    -7.9514     3.0615 C.ar    
  29 N29           -4.5142    -3.0741     4.4532 N.am    
  30 C30           -5.6262    -2.1526     4.6994 C.3     
  31 C31           -6.2565    -2.4654     6.0580 C.3     
  32 O32           -5.3250    -2.1704     7.1053 O.3     
  33 C33           -5.8513    -1.1375     7.9535 C.3     
  34 C34           -7.3892    -1.2181     7.7826 C.3     
  35 C35           -7.4999    -1.5766     6.2755 C.3     
  36 F36           -4.5733    -9.2219     3.0630 F       
  37 O37           -2.3962    -7.3084    -2.3621 O.3     
  38 C38           -3.2225    -6.9614    -3.4751 C.3     
  39 H39            2.2692     2.7654     0.7041 H       
  40 H40            4.1712     1.5948     1.6859 H       
  41 H41            4.0958    -0.8357     2.0458 H       
  42 H42            2.1122    -2.1208     1.4260 H       
  43 H43           -1.3970    -2.3326    -0.5673 H       
  44 H44            0.1263    -2.8988     0.1588 H       
  45 H45           -0.8296    -5.9726     1.6529 H       
  46 H46           -3.4750    -3.3615    -0.4602 H       
  47 H47           -1.9133    -3.8165     3.8402 H       
  48 H48           -2.0557    -5.9122     4.7915 H       
  49 H49           -2.8906    -8.2283     4.7952 H       
  50 H50           -0.9841    -7.6092    -0.1783 H       
  51 H51           -3.6246    -4.9976    -2.2923 H       
  52 H52           -4.4030    -5.0680     1.3321 H       
  53 H53           -5.2407    -7.3831     1.3331 H       
  54 H54           -4.2877    -3.7481     5.1130 H       
  55 H55           -5.2557    -1.1275     4.6981 H       
  56 H56           -6.3750    -2.2693     3.9159 H       
  57 H57           -6.5400    -3.5170     6.1006 H       
  58 H58           -5.5758    -1.3233     8.9916 H       
  59 H59           -5.4857    -0.1619     7.6330 H       
  60 H60           -7.8130    -2.0055     8.4059 H       
  61 H61           -7.8588    -0.2573     7.9933 H       
  62 H62           -7.4483    -0.6795     5.6586 H       
  63 H63           -8.4150    -2.1340     6.0756 H       
  64 H64           -3.2000    -7.7666    -4.2094 H       
  65 H65           -4.2465    -6.8093    -3.1340 H       
  66 H66           -2.8513    -6.0435    -3.9310 H       
@<TRIPOS>BOND
   1    1    2 ar
   2    1    6 ar
   3    1    5 1
   4    2    3 1
   5    2    9 ar
   6    3    4 1
   7    3   10 1
   8    4    5 2
   9    6    7 ar
  10    6   39 1
  11    7    8 ar
  12    7   40 1
  13    8    9 ar
  14    8   41 1
  15    9   42 1
  16   10   11 1
  17   10   43 1
  18   10   44 1
  19   11   14 am
  20   11   21 2
  21   12   13 ar
  22   12   23 ar
  23   12   45 1
  24   13   14 1
  25   13   15 ar
  26   14   18 1
  27   15   25 ar
  28   15   46 1
  29   16   17 2
  30   17   18 1
  31   17   29 am
  32   18   19 1
  33   18   47 1
  34   19   20 ar
  35   19   26 ar
  36   20   22 ar
  37   20   48 1
  38   22   28 ar
  39   22   49 1
  40   23   24 ar
  41   23   50 1
  42   24   25 ar
  43   24   37 1
  44   25   51 1
  45   26   27 ar
  46   26   52 1
  47   27   28 ar
  48   27   53 1
  49   28   36 1
  50   29   30 1
  51   29   54 1
  52   30   31 1
  53   30   55 1
  54   30   56 1
  55   31   32 1
  56   31   35 1
  57   31   57 1
  58   32   33 1
  59   33   34 1
  60   33   58 1
  61   33   59 1
  62   34   35 1
  63   34   60 1
  64   34   61 1
  65   35   62 1
  66   35   63 1
  67   37   38 1
  68   38   64 1
  69   38   65 1
  70   38   66 1

#	End of record

