#	Name: ASD00431174
#	Creating user name:	WinNT
#	Creation time:	15. 06. 2019 18:35

#	Modifying user name:	WinNT
#	Modification time:	15. 06. 2019 18:35

#	Program:	/corina/corina34_cracker 3.40 0067  02.08.2006

@<TRIPOS>MOLECULE
ASD00431174
  42   44    0    0    0
SMALL
NO_CHARGES


@<TRIPOS>ATOM
   1 C1            -1.0932     7.9280     5.7805 C.3     
   2 C2            -1.9263     8.2879     4.5488 C.3     
   3 O3             0.9882     9.3352     5.4108 O.3     
   4 N4             2.1625     9.1733     5.1538 N.2     
   5 C5             2.4238     7.8943     5.0341 C.2     
   6 N6             1.2634     7.2294     5.2465 N.2     
   7 C7             0.3668     8.1537     5.4830 C.2     
   8 S8             4.0749     5.5706     4.5656 S.3     
   9 C9             5.7168     5.9133     4.2352 C.2     
  10 N10            5.9226     7.1944     4.2569 N.2     
  11 C11            4.8881     7.9632     4.5154 C.2     
  12 C12            3.7360     7.2922     4.7253 C.2     
  13 O13            6.6668     4.9810     3.9863 O.3     
  14 C14            7.9087     5.4122     3.6390 C.ar    
  15 C15            8.6808     6.1128     4.5541 C.ar    
  16 C16            9.9423     6.5508     4.2012 C.ar    
  17 C17           10.4369     6.2905     2.9318 C.ar    
  18 C18            9.6648     5.5903     2.0166 C.ar    
  19 C19            8.4059     5.1465     2.3714 C.ar    
  20 O20           11.6787     6.7220     2.5843 O.3     
  21 C21           12.3633     7.5528     3.5241 C.3     
  22 C22           13.2581     6.6870     4.4131 C.3     
  23 C23           13.2231     8.5713     2.7728 C.3     
  24 N24           -1.4991     8.7742     6.9106 N.3     
  25 H25           -1.2544     6.8804     6.0347 H       
  26 H26           -1.7650     9.3356     4.2946 H       
  27 H27           -1.6251     7.6601     3.7102 H       
  28 H28           -2.9823     8.1247     4.7640 H       
  29 H29            4.9546     9.0404     4.5569 H       
  30 H30            8.2954     6.3162     5.5423 H       
  31 H31           10.5434     7.0963     4.9136 H       
  32 H32           10.0498     5.3883     1.0279 H       
  33 H33            7.8067     4.5972     1.6605 H       
  34 H34           11.6354     8.0778     4.1427 H       
  35 H35           13.7803     7.3207     5.1300 H       
  36 H36           12.6456     5.9614     4.9483 H       
  37 H37           13.9860     6.1620     3.7945 H       
  38 H38           12.5856     9.1881     2.1395 H       
  39 H39           13.7453     9.2050     3.4897 H       
  40 H40           13.9510     8.0463     2.1542 H       
  41 H41           -1.2996     9.7457     6.7249 H       
  42 H42           -2.4750     8.6410     7.1299 H       
@<TRIPOS>BOND
   1    1    2 1
   2    1    7 1
   3    1   24 1
   4    1   25 1
   5    2   26 1
   6    2   27 1
   7    2   28 1
   8    3    4 1
   9    3    7 1
  10    4    5 2
  11    5    6 1
  12    5   12 1
  13    6    7 2
  14    8    9 1
  15    8   12 1
  16    9   10 2
  17    9   13 1
  18   10   11 1
  19   11   12 2
  20   11   29 1
  21   13   14 1
  22   14   15 ar
  23   14   19 ar
  24   15   16 ar
  25   15   30 1
  26   16   17 ar
  27   16   31 1
  28   17   18 ar
  29   17   20 1
  30   18   19 ar
  31   18   32 1
  32   19   33 1
  33   20   21 1
  34   21   22 1
  35   21   23 1
  36   21   34 1
  37   22   35 1
  38   22   36 1
  39   22   37 1
  40   23   38 1
  41   23   39 1
  42   23   40 1
  43   24   41 1
  44   24   42 1

#	End of record

