#	Name: ASD01915874
#	Creating user name:	WinNT
#	Creation time:	15. 06. 2019 20:06

#	Modifying user name:	WinNT
#	Modification time:	15. 06. 2019 20:06

#	Program:	/corina/corina34_cracker 3.40 0067  02.08.2006

@<TRIPOS>MOLECULE
ASD01915874
  42   46    0    0    0
SMALL
NO_CHARGES


@<TRIPOS>ATOM
   1 C1            -0.0042     1.4697     0.2384 C.2     
   2 N2             0.0671     0.1210    -0.0304 N.pl3   
   3 C3            -1.1412    -0.6615    -0.3171 C.3     
   4 C4            -2.3276    -0.0490     0.4255 C.3     
   5 N5            -2.4044     1.3988     0.2637 N.am    
   6 C6            -1.2938     2.1746     0.2900 C.2     
   7 C7             1.2759     1.9069     0.4324 C.2     
   8 C8             2.0761     0.7668     0.2780 C.2     
   9 N9             1.2875    -0.2481     0.0112 N.2     
  10 C10            3.5775     0.7151     0.3974 C.3     
  11 O11            4.0768     2.0202     0.6962 O.3     
  12 C12            5.4224     2.1486     0.8373 C.ar    
  13 O13           -1.3598     3.3876     0.3529 O.2     
  14 C14            5.9755     3.3873     1.1278 C.ar    
  15 C15            6.2447     1.0401     0.6969 C.ar    
  16 C16            7.6121     1.1733     0.8408 C.ar    
  17 C17            8.1614     2.4100     1.1246 C.ar    
  18 C18            7.3435     3.5152     1.2707 C.ar    
  19 C19           -3.6506     1.9987     0.0775 C.ar    
  20 C20           -3.9371     2.5938    -1.1645 C.ar    
  21 C21           -4.5461     1.9815     1.1027 C.ar    
  22 C22           -5.8078     2.5786     0.9407 C.ar    
  23 C23           -6.1308     3.2187    -0.3603 C.ar    
  24 C24           -5.1275     3.1936    -1.4111 C.ar    
  25 N25           -6.9020     2.7731     1.6362 N.2     
  26 O26           -7.7046     3.3773     0.9530 O.3     
  27 N27           -7.3472     3.6615    -0.1730 N.2     
  28 H28           -1.3371    -0.6486    -1.3893 H       
  29 H29           -0.9960    -1.6897     0.0144 H       
  30 H30           -3.2477    -0.4949     0.0477 H       
  31 H31           -2.2364    -0.2805     1.4867 H       
  32 H32            1.6004     2.9125     0.6558 H       
  33 H33            3.8550     0.0281     1.1968 H       
  34 H34            4.0050     0.3691    -0.5437 H       
  35 H35            5.3371     4.2510     1.2416 H       
  36 H36            5.8161     0.0738     0.4756 H       
  37 H37            8.2526     0.3106     0.7319 H       
  38 H38            9.2307     2.5120     1.2368 H       
  39 H39            7.7750     4.4802     1.4921 H       
  40 H40           -3.1883     2.5727    -1.9425 H       
  41 H41           -4.2874     1.5094     2.0389 H       
  42 H42           -5.3253     3.6483    -2.3705 H       
@<TRIPOS>BOND
   1    1    2 1
   2    1    7 2
   3    1    6 1
   4    2    3 1
   5    2    9 1
   6    3    4 1
   7    3   28 1
   8    3   29 1
   9    4    5 1
  10    4   30 1
  11    4   31 1
  12    5    6 am
  13    5   19 1
  14    6   13 2
  15    7    8 1
  16    7   32 1
  17    8    9 2
  18    8   10 1
  19   10   11 1
  20   10   33 1
  21   10   34 1
  22   11   12 1
  23   12   14 ar
  24   12   15 ar
  25   14   18 ar
  26   14   35 1
  27   15   16 ar
  28   15   36 1
  29   16   17 ar
  30   16   37 1
  31   17   18 ar
  32   17   38 1
  33   18   39 1
  34   19   20 ar
  35   19   21 ar
  36   20   24 ar
  37   20   40 1
  38   21   22 ar
  39   21   41 1
  40   22   23 ar
  41   22   25 2
  42   23   24 ar
  43   23   27 2
  44   24   42 1
  45   25   26 1
  46   26   27 1

#	End of record

