#	Name: ASD01815911
#	Creating user name:	WinNT
#	Creation time:	15. 06. 2019 19:34

#	Modifying user name:	WinNT
#	Modification time:	15. 06. 2019 19:34

#	Program:	/corina/corina34_cracker 3.40 0067  02.08.2006

@<TRIPOS>MOLECULE
ASD01815911
  57   63    0    0    0
SMALL
NO_CHARGES


@<TRIPOS>ATOM
   1 C1             0.1064     1.4782     0.3815 C.ar    
   2 C2             0.0863     0.0931     0.3727 C.ar    
   3 C3             1.2565    -0.6272     0.2336 C.ar    
   4 C4             2.4729     0.0370     0.1002 C.ar    
   5 C5             2.4905     1.4412     0.1094 C.ar    
   6 C6             1.3032     2.1567     0.2504 C.ar    
   7 N7             3.6498    -0.6796    -0.0392 N.pl3   
   8 C8             4.8507    -0.0941    -0.1710 C.2     
   9 C9             4.9913     1.2716    -0.1761 C.2     
  10 C10            3.7896     2.1248    -0.0333 C.2     
  11 C11            6.1080     2.2038    -0.2960 C.2     
  12 N12            5.5737     3.4422    -0.2262 N.am    
  13 N13            4.1875     3.3643    -0.0693 N.2     
  14 C14            6.3004     4.6272    -0.2993 C.ar    
  15 O15            7.2870     1.9212    -0.4317 O.2     
  16 C16            3.5813    -2.1430    -0.0425 C.3     
  17 C17            3.4348    -2.6358    -1.4591 C.ar    
  18 C18            4.5542    -2.7846    -2.2571 C.ar    
  19 C19            4.4231    -3.2357    -3.5560 C.ar    
  20 C20            3.1658    -3.5401    -4.0600 C.ar    
  21 C21            2.0437    -3.3900    -3.2562 C.ar    
  22 C22            2.1818    -2.9435    -1.9565 C.ar    
  23 N23            3.0294    -3.9976    -5.3781 N.pl3   
  24 C24            1.8696    -4.3278    -5.9899 C.2     
  25 F25            1.3218     3.5076     0.2586 F       
  26 F26            1.2209    -1.9777     0.2273 F       
  27 C27            2.1662    -4.7196    -7.2507 C.2     
  28 C28            3.5525    -4.6262    -7.4159 C.2     
  29 N29            4.0699    -4.1880    -6.2965 N.2     
  30 C30            7.1346     4.8650    -1.3810 C.ar    
  31 C31            7.8554     6.0400    -1.4538 C.ar    
  32 C32            7.7511     6.9879    -0.4493 C.ar    
  33 C33            6.9265     6.7713     0.6364 C.ar    
  34 C34            6.1854     5.5917     0.7245 C.ar    
  35 C35            6.6452     7.6358     1.8422 C.3     
  36 C36            5.6424     6.8566     2.7045 C.3     
  37 C37            5.3836     5.5728     1.9539 C.2     
  38 O38            4.6423     4.6796     2.3063 O.2     
  39 H39           -0.8163     2.0294     0.4865 H       
  40 H40           -0.8537    -0.4287     0.4761 H       
  41 H41            5.7292    -0.7135    -0.2753 H       
  42 H42            4.4944    -2.5504     0.3913 H       
  43 H43            2.7231    -2.4678     0.5458 H       
  44 H44            5.5320    -2.5477    -1.8645 H       
  45 H45            5.2977    -3.3511    -4.1790 H       
  46 H46            1.0644    -3.6257    -3.6457 H       
  47 H47            1.3093    -2.8266    -1.3307 H       
  48 H48            0.8836    -4.2868    -5.5509 H       
  49 H49            1.4579    -5.0467    -7.9976 H       
  50 H50            4.1007    -4.8695    -8.3141 H       
  51 H51            7.2208     4.1298    -2.1675 H       
  52 H52            8.5043     6.2209    -2.2980 H       
  53 H53            8.3197     7.9037    -0.5158 H       
  54 H54            7.5645     7.8094     2.4013 H       
  55 H55            6.2114     8.5855     1.5291 H       
  56 H56            6.0712     6.6449     3.6840 H       
  57 H57            4.7165     7.4219     2.8108 H       
@<TRIPOS>BOND
   1    1    2 ar
   2    1    6 ar
   3    1   39 1
   4    2    3 ar
   5    2   40 1
   6    3    4 ar
   7    3   26 1
   8    4    5 ar
   9    4    7 1
  10    5    6 ar
  11    5   10 1
  12    6   25 1
  13    7    8 1
  14    7   16 1
  15    8    9 2
  16    8   41 1
  17    9   10 1
  18    9   11 1
  19   10   13 2
  20   11   12 am
  21   11   15 2
  22   12   13 1
  23   12   14 1
  24   14   30 ar
  25   14   34 ar
  26   16   17 1
  27   16   42 1
  28   16   43 1
  29   17   18 ar
  30   17   22 ar
  31   18   19 ar
  32   18   44 1
  33   19   20 ar
  34   19   45 1
  35   20   21 ar
  36   20   23 1
  37   21   22 ar
  38   21   46 1
  39   22   47 1
  40   23   24 1
  41   23   29 1
  42   24   27 2
  43   24   48 1
  44   27   28 1
  45   27   49 1
  46   28   29 2
  47   28   50 1
  48   30   31 ar
  49   30   51 1
  50   31   32 ar
  51   31   52 1
  52   32   33 ar
  53   32   53 1
  54   33   34 ar
  55   33   35 1
  56   34   37 1
  57   35   36 1
  58   35   54 1
  59   35   55 1
  60   36   37 1
  61   36   56 1
  62   36   57 1
  63   37   38 2

#	End of record

