#	Name: ASD03240284
#	Creating user name:	WinNT
#	Creation time:	15. 06. 2019 20:34

#	Modifying user name:	WinNT
#	Modification time:	15. 06. 2019 20:34

#	Program:	/corina/corina34_cracker 3.40 0067  02.08.2006

@<TRIPOS>MOLECULE
ASD03240284
  80   84    0    0    0
SMALL
NO_CHARGES


@<TRIPOS>ATOM
   1 C1            -0.0162     1.3741    -0.0449 C.2     
   2 N2             0.0028    -0.0006    -0.0572 N.pl3   
   3 C3            -3.6506     2.2724     0.0299 C.3     
   4 C4            -2.4743     1.2946    -0.0003 C.3     
   5 N5            -1.2160     2.0447    -0.0170 N.pl3   
   6 N6             1.1034     2.0414    -0.0543 N.2     
   7 N7            -4.9089     1.5223     0.0466 N.pl3   
   8 C8            -6.1202     2.1994     0.0748 C.ar    
   9 C9            -7.3257     1.4807     0.0908 C.ar    
  10 C10           -8.5353     2.1623     0.1195 C.ar    
  11 C11           -8.5448     3.5578     0.1322 C.ar    
  12 C12           -7.3383     4.2656     0.1161 C.ar    
  13 C13           -6.1393     3.5897     0.0930 C.ar    
  14 C14           -9.8272     4.2866     0.1622 C.2     
  15 N15           -9.8363     5.6343     0.1745 N.am    
  16 O16          -10.8761     3.6713     0.1758 O.2     
  17 C17          -11.0507     6.3273     0.0899 C.ar    
  18 C18          -11.2173     7.5226     0.7768 C.ar    
  19 C19          -12.0860     5.8218    -0.6854 C.ar    
  20 C20          -13.2828     6.5050    -0.7693 C.ar    
  21 C21          -13.4515     7.6976    -0.0778 C.ar    
  22 C22          -12.4143     8.2055     0.6938 C.ar    
  23 N23          -14.6640     8.3902    -0.1630 N.pl3   
  24 C24          -14.8419     9.6482     0.5664 C.3     
  25 C25          -15.7559     7.8574    -0.9817 C.3     
  26 C26           -7.3078    -0.0008     0.0767 C.ar    
  27 C27           -8.0589    -0.7161     1.0105 C.ar    
  28 C28           -8.0431    -2.0922     0.9983 C.ar    
  29 C29           -7.2747    -2.7734     0.0499 C.ar    
  30 C30           -6.5232    -2.0558    -0.8852 C.ar    
  31 C31           -6.5445    -0.6798    -0.8741 C.ar    
  32 C32          -16.6205     6.9547    -0.1400 C.ar    
  33 C33          -14.4127    10.7997    -0.3059 C.ar    
  34 C34          -17.6999     7.4769     0.5479 C.ar    
  35 C35          -18.4938     6.6499     1.3198 C.ar    
  36 C36          -18.2076     5.2978     1.4039 C.ar    
  37 C37          -17.1262     4.7759     0.7145 C.ar    
  38 C38          -16.3369     5.6039    -0.0609 C.ar    
  39 C39          -15.3305    11.4182    -1.1342 C.ar    
  40 C40          -14.9381    12.4746    -1.9343 C.ar    
  41 C41          -13.6252    12.9133    -1.9061 C.ar    
  42 C42          -12.7068    12.2930    -1.0761 C.ar    
  43 C43          -13.1027    11.2402    -0.2730 C.ar    
  44 F44          -18.9827     4.4885     2.1585 F       
  45 F45          -13.2404    13.9456    -2.6881 F       
  46 C46           -7.2571    -4.2053     0.0365 C.1     
  47 N47           -7.2430    -5.3411     0.0259 N.1     
  48 H48            0.8494    -0.4738    -0.0729 H       
  49 H49           -0.8303    -0.4972    -0.0502 H       
  50 H50           -3.5851     2.8921     0.9242 H       
  51 H51           -3.6180     2.9075    -0.8553 H       
  52 H52           -2.5069     0.6595     0.8850 H       
  53 H53           -2.5397     0.6749    -0.8946 H       
  54 H54           -1.2294     3.0146    -0.0083 H       
  55 H55            1.9500     1.5682    -0.0700 H       
  56 H56           -4.8955     0.5524     0.0380 H       
  57 H57           -9.4658     1.6142     0.1316 H       
  58 H58           -7.3475     5.3455     0.1257 H       
  59 H59           -5.2107     4.1410     0.0810 H       
  60 H60           -9.0019     6.1243     0.2420 H       
  61 H61          -10.4105     7.9179     1.3762 H       
  62 H62          -11.9548     4.8944    -1.2231 H       
  63 H63          -14.0876     6.1122    -1.3729 H       
  64 H64          -12.5454     9.1329     1.2316 H       
  65 H65          -15.8916     9.7673     0.8348 H       
  66 H66          -14.2349     9.6322     1.4716 H       
  67 H67          -16.3571     8.6813    -1.3661 H       
  68 H68          -15.3417     7.2902    -1.8152 H       
  69 H69           -8.6525    -0.1896     1.7431 H       
  70 H70           -8.6238    -2.6455     1.7215 H       
  71 H71           -5.9292    -2.5811    -1.6185 H       
  72 H72           -5.9643    -0.1252    -1.5967 H       
  73 H73          -17.9227     8.5316     0.4824 H       
  74 H74          -19.3368     7.0581     1.8573 H       
  75 H75          -16.9021     3.7214     0.7795 H       
  76 H76          -15.4934     5.1971    -0.5987 H       
  77 H77          -16.3545    11.0756    -1.1563 H       
  78 H78          -15.6553    12.9575    -2.5815 H       
  79 H79          -11.6824    12.6343    -1.0533 H       
  80 H80          -12.3865    10.7562     0.3744 H       
@<TRIPOS>BOND
   1    1    2 1
   2    1    6 2
   3    1    5 1
   4    2   48 1
   5    2   49 1
   6    3    4 1
   7    3    7 1
   8    3   50 1
   9    3   51 1
  10    4    5 1
  11    4   52 1
  12    4   53 1
  13    5   54 1
  14    6   55 1
  15    7    8 1
  16    7   56 1
  17    8    9 ar
  18    8   13 ar
  19    9   10 ar
  20    9   26 1
  21   10   11 ar
  22   10   57 1
  23   11   12 ar
  24   11   14 1
  25   12   13 ar
  26   12   58 1
  27   13   59 1
  28   14   15 am
  29   14   16 2
  30   15   17 1
  31   15   60 1
  32   17   18 ar
  33   17   19 ar
  34   18   22 ar
  35   18   61 1
  36   19   20 ar
  37   19   62 1
  38   20   21 ar
  39   20   63 1
  40   21   22 ar
  41   21   23 1
  42   22   64 1
  43   23   24 1
  44   23   25 1
  45   24   33 1
  46   24   65 1
  47   24   66 1
  48   25   32 1
  49   25   67 1
  50   25   68 1
  51   26   27 ar
  52   26   31 ar
  53   27   28 ar
  54   27   69 1
  55   28   29 ar
  56   28   70 1
  57   29   30 ar
  58   29   46 1
  59   30   31 ar
  60   30   71 1
  61   31   72 1
  62   32   34 ar
  63   32   38 ar
  64   33   39 ar
  65   33   43 ar
  66   34   35 ar
  67   34   73 1
  68   35   36 ar
  69   35   74 1
  70   36   37 ar
  71   36   44 1
  72   37   38 ar
  73   37   75 1
  74   38   76 1
  75   39   40 ar
  76   39   77 1
  77   40   41 ar
  78   40   78 1
  79   41   42 ar
  80   41   45 1
  81   42   43 ar
  82   42   79 1
  83   43   80 1
  84   46   47 3

#	End of record

