#	Name: ASD06170106
#	Creating user name:	WinNT
#	Creation time:	15. 06. 2019 21:05

#	Modifying user name:	WinNT
#	Modification time:	15. 06. 2019 21:05

#	Program:	/corina/corina34_cracker 3.40 0067  02.08.2006

@<TRIPOS>MOLECULE
ASD06170106
  73   77    0    0    0
SMALL
NO_CHARGES


@<TRIPOS>ATOM
   1 N1            -0.1233     1.2338    -1.2424 N.pl3   
   2 N2            -0.0866    -0.0395    -0.6664 N.am    
   3 C3             1.1872    -0.4837    -0.6869 C.2     
   4 C4             1.9903     0.5782    -1.3135 C.2     
   5 C5             1.1145     1.5993    -1.6268 C.2     
   6 C6             3.4377     0.5569    -1.5569 C.2     
   7 O7             3.9796     1.5089    -2.0871 O.2     
   8 N8             4.1665    -0.5169    -1.1932 N.am    
   9 C9            -1.1861    -0.7360    -0.1543 C.ar    
  10 C10           -1.4075    -2.0562    -0.5244 C.ar    
  11 C11           -2.4938    -2.7413    -0.0166 C.ar    
  12 C12           -3.3610    -2.1140     0.8591 C.ar    
  13 C13           -3.1434    -0.7996     1.2296 C.ar    
  14 C14           -2.0557    -0.1107     0.7298 C.ar    
  15 O15            1.5924    -1.5523    -0.2688 O.2     
  16 C16            1.4822     2.9025    -2.2883 C.3     
  17 C17            5.5632    -0.4790    -1.2857 C.ar    
  18 C18            6.2419     0.7125    -1.0649 C.ar    
  19 C19            7.6206     0.7487    -1.1560 C.ar    
  20 C20            8.3265    -0.4070    -1.4684 C.ar    
  21 C21            7.6479    -1.5958    -1.6886 C.ar    
  22 C22            6.2703    -1.6338    -1.5925 C.ar    
  23 O23            9.6830    -0.3717    -1.5586 O.3     
  24 N24           11.8416    -0.6036     1.9480 N.ar    
  25 C25           10.5352    -0.7283     1.9676 C.ar    
  26 C26            9.7752    -0.6557     0.8073 C.ar    
  27 C27           10.3993    -0.4465    -0.4102 C.ar    
  28 C28           11.8064    -0.3137    -0.4194 C.ar    
  29 C29           12.5089    -0.0995    -1.6143 C.ar    
  30 C30           13.8639     0.0248    -1.5904 C.ar    
  31 C31           14.5685    -0.0584    -0.3860 C.ar    
  32 C32           13.9079    -0.2684     0.8032 C.ar    
  33 C33           12.5101    -0.3997     0.8067 C.ar    
  34 O34           15.9209     0.0691    -0.3893 O.3     
  35 C35           16.5491     0.2850    -1.6545 C.3     
  36 F36            8.2818     1.9073    -0.9418 F       
  37 C37           -1.3302     2.0474    -1.4087 C.3     
  38 C38           -1.8783     1.8630    -2.8252 C.3     
  39 C39           -3.2120     2.6013    -2.9562 C.3     
  40 N40           -2.0820     0.4362    -3.0881 N.am    
  41 C41           -2.1036    -0.0189    -4.3565 C.2     
  42 O42           -1.9543     0.7527    -5.2803 O.2     
  43 C43           -2.3132    -1.4865    -4.6270 C.3     
  44 H44            3.7235    -1.3159    -0.8673 H       
  45 H45           -0.7310    -2.5465    -1.2088 H       
  46 H46           -2.6665    -3.7679    -0.3040 H       
  47 H47           -4.2102    -2.6517     1.2542 H       
  48 H48           -3.8225    -0.3125     1.9137 H       
  49 H49           -1.8841     0.9145     1.0227 H       
  50 H50            1.6687     3.6576    -1.5247 H       
  51 H51            2.3808     2.7640    -2.8895 H       
  52 H52            0.6629     3.2285    -2.9291 H       
  53 H53            5.6926     1.6102    -0.8225 H       
  54 H54            8.1969    -2.4936    -1.9314 H       
  55 H55            5.7428    -2.5611    -1.7602 H       
  56 H56           10.0374    -0.8918     2.9119 H       
  57 H57            8.7015    -0.7627     0.8549 H       
  58 H58           11.9758    -0.0338    -2.5513 H       
  59 H59           14.4011     0.1893    -2.5128 H       
  60 H60           14.4616    -0.3318     1.7283 H       
  61 H61           17.6269     0.3690    -1.5153 H       
  62 H62           16.3324    -0.5540    -2.3157 H       
  63 H63           16.1672     1.2048    -2.0975 H       
  64 H64           -2.0822     1.7341    -0.6845 H       
  65 H65           -1.0857     3.0973    -1.2475 H       
  66 H66           -1.1670     2.2672    -3.5455 H       
  67 H67           -3.0604     3.6628    -2.7605 H       
  68 H68           -3.6024     2.4699    -3.9653 H       
  69 H69           -3.9233     2.1970    -2.2359 H       
  70 H70           -2.2015    -0.1808    -2.3493 H       
  71 H71           -3.3794    -1.6885    -4.7295 H       
  72 H72           -1.8008    -1.7630    -5.5485 H       
  73 H73           -1.9109    -2.0697    -3.7986 H       
@<TRIPOS>BOND
   1    1    2 1
   2    1    5 1
   3    1   37 1
   4    2    3 am
   5    2    9 1
   6    3    4 1
   7    3   15 2
   8    4    5 2
   9    4    6 1
  10    5   16 1
  11    6    7 2
  12    6    8 am
  13    8   17 1
  14    8   44 1
  15    9   10 ar
  16    9   14 ar
  17   10   11 ar
  18   10   45 1
  19   11   12 ar
  20   11   46 1
  21   12   13 ar
  22   12   47 1
  23   13   14 ar
  24   13   48 1
  25   14   49 1
  26   16   50 1
  27   16   51 1
  28   16   52 1
  29   17   18 ar
  30   17   22 ar
  31   18   19 ar
  32   18   53 1
  33   19   20 ar
  34   19   36 1
  35   20   21 ar
  36   20   23 1
  37   21   22 ar
  38   21   54 1
  39   22   55 1
  40   23   27 1
  41   24   25 ar
  42   24   33 ar
  43   25   26 ar
  44   25   56 1
  45   26   27 ar
  46   26   57 1
  47   27   28 ar
  48   28   29 ar
  49   28   33 ar
  50   29   30 ar
  51   29   58 1
  52   30   31 ar
  53   30   59 1
  54   31   32 ar
  55   31   34 1
  56   32   33 ar
  57   32   60 1
  58   34   35 1
  59   35   61 1
  60   35   62 1
  61   35   63 1
  62   37   38 1
  63   37   64 1
  64   37   65 1
  65   38   39 1
  66   38   40 1
  67   38   66 1
  68   39   67 1
  69   39   68 1
  70   39   69 1
  71   40   41 am
  72   40   70 1
  73   41   42 2
  74   41   43 1
  75   43   71 1
  76   43   72 1
  77   43   73 1

#	End of record

