#	Name: ASD04880499
#	Creating user name:	WinNT
#	Creation time:	15. 06. 2019 20:53

#	Modifying user name:	WinNT
#	Modification time:	15. 06. 2019 20:53

#	Program:	/corina/corina34_cracker 3.40 0067  02.08.2006

@<TRIPOS>MOLECULE
ASD04880499
  38   40    0    0    0
SMALL
NO_CHARGES


@<TRIPOS>ATOM
   1 C1            -0.0144     1.2118     0.0087 C.2     
   2 O2             0.0436    -0.0026     0.0315 O.2     
   3 N3             1.1185     1.9396    -0.0483 N.am    
   4 N4             1.1861     3.3240    -0.1910 N.2     
   5 C5             2.3862     3.7923    -0.2192 C.2     
   6 C6             3.3749     2.6563    -0.0842 C.3     
   7 C7             2.4860     1.4027     0.0365 C.3     
   8 C8             2.7407     5.2161    -0.3616 C.ar    
   9 C9             1.7354     6.1800    -0.4789 C.ar    
  10 C10            2.0733     7.5133    -0.6116 C.ar    
  11 C11            3.4137     7.8943    -0.6283 C.ar    
  12 C12            4.4116     6.9381    -0.5124 C.ar    
  13 C13            4.0821     5.6059    -0.3737 C.ar    
  14 O14            3.7440     9.2064    -0.7590 O.3     
  15 C15            5.1365     9.5271    -0.7685 C.3     
  16 O16            1.0977     8.4538    -0.7265 O.3     
  17 C17           -1.3275     1.8895     0.0373 C.ar    
  18 C18           -2.5036     1.1431    -0.0542 C.ar    
  19 C19           -3.7276     1.7832    -0.0263 C.ar    
  20 C20           -3.7879     3.1628     0.0922 C.ar    
  21 C21           -2.6252     3.9062     0.1832 C.ar    
  22 C22           -1.3968     3.2780     0.1618 C.ar    
  23 F23           -4.8674     1.0634    -0.1151 F       
  24 H24            4.0099     2.5950    -0.9680 H       
  25 H25            3.9794     2.7803     0.8143 H       
  26 H26            2.6452     0.9083     0.9948 H       
  27 H27            2.6802     0.7160    -0.7875 H       
  28 H28            0.6970     5.8835    -0.4662 H       
  29 H29            5.4491     7.2377    -0.5265 H       
  30 H30            4.8610     4.8638    -0.2788 H       
  31 H31            5.2606    10.6044    -0.8783 H       
  32 H32            5.5905     9.2027     0.1679 H       
  33 H33            5.6207     9.0188    -1.6023 H       
  34 H34            0.8002     8.8171     0.1189 H       
  35 H35           -2.4568     0.0681    -0.1469 H       
  36 H36           -4.7467     3.6594     0.1133 H       
  37 H37           -2.6789     4.9809     0.2754 H       
  38 H38           -0.4903     3.8602     0.2375 H       
@<TRIPOS>BOND
   1    1    2 2
   2    1    3 am
   3    1   17 1
   4    3    4 1
   5    3    7 1
   6    4    5 2
   7    5    6 1
   8    5    8 1
   9    6    7 1
  10    6   24 1
  11    6   25 1
  12    7   26 1
  13    7   27 1
  14    8    9 ar
  15    8   13 ar
  16    9   10 ar
  17    9   28 1
  18   10   11 ar
  19   10   16 1
  20   11   12 ar
  21   11   14 1
  22   12   13 ar
  23   12   29 1
  24   13   30 1
  25   14   15 1
  26   15   31 1
  27   15   32 1
  28   15   33 1
  29   16   34 1
  30   17   18 ar
  31   17   22 ar
  32   18   19 ar
  33   18   35 1
  34   19   20 ar
  35   19   23 1
  36   20   21 ar
  37   20   36 1
  38   21   22 ar
  39   21   37 1
  40   22   38 1

#	End of record

