#	Name: ASD01310058
#	Creating user name:	WinNT
#	Creation time:	15. 06. 2019 19:15

#	Modifying user name:	WinNT
#	Modification time:	15. 06. 2019 19:15

#	Program:	/corina/corina34_cracker 3.40 0067  02.08.2006

@<TRIPOS>MOLECULE
ASD01310058
  47   51    0    0    0
SMALL
NO_CHARGES


@<TRIPOS>ATOM
   1 C1            -0.1470     1.5483    -0.0647 C.3     
   2 C2            -0.0073     0.0591    -0.0666 C.ar    
   3 C3            -0.0359    -0.6685    -1.2509 C.ar    
   4 C4            -0.5674     1.2664    -2.5211 C.2     
   5 C5             0.1571    -0.6220     1.1253 C.ar    
   6 N6             0.2940    -1.9338     1.1420 N.ar    
   7 C7             0.2825    -2.6541     0.0364 C.ar    
   8 C8             0.1175    -2.0510    -1.1945 C.ar    
   9 N9             0.9336     3.5531    -0.7957 N.am    
  10 C10            1.2312     2.2244    -0.2282 C.3     
  11 C11           -0.9173     2.0601    -1.2956 C.3     
  12 C12           -0.3685     3.4946    -1.4761 C.3     
  13 N13           -0.2181    -0.0255    -2.4690 N.am    
  14 O14           -0.6031     1.8169    -3.6012 O.2     
  15 S15            1.9049     4.8897    -0.6841 S.o2    
  16 O16            1.0556     6.0175    -0.8454 O.2     
  17 O17            2.7278     4.6934     0.4577 O.2     
  18 C18            2.9791     4.8719    -2.0806 C.ar    
  19 C19            4.1984     4.2256    -2.0045 C.ar    
  20 C20            2.5980     5.4998    -3.2522 C.ar    
  21 C21            5.0451     4.2092    -3.0977 C.ar    
  22 H22           -0.6244     1.8810     0.8570 H       
  23 H23           -1.9927     2.0550    -1.1181 H       
  24 C24           -0.0247    -0.7715    -3.7149 C.3     
  25 C25            4.6723     4.8407    -4.2726 C.ar    
  26 C26           -0.1918     3.8005    -2.9648 C.3     
  27 O27            5.3103     4.9705    -5.4724 O.3     
  28 C28            3.4407     5.4871    -4.3513 C.ar    
  29 O29            3.3069     6.0201    -5.6007 O.3     
  30 C30            4.2887     5.3546    -6.4115 C.3     
  31 H31            0.1740    -0.0726     2.0550 H       
  32 H32            0.4034    -3.7257     0.0950 H       
  33 H33            0.1076    -2.6419    -2.0985 H       
  34 H34            1.7212     2.3263     0.7400 H       
  35 H35            1.8564     1.6508    -0.9125 H       
  36 H36           -1.0541     4.2130    -1.0268 H       
  37 H37            4.4907     3.7327    -1.0891 H       
  38 H38            1.6426     6.0000    -3.3104 H       
  39 H39            5.9975     3.7039    -3.0351 H       
  40 H40           -0.7788    -1.5550    -3.7900 H       
  41 H41           -0.1196    -0.0934    -4.5630 H       
  42 H42            0.9682    -1.2213    -3.7187 H       
  43 H43            0.5992     3.1718    -3.3736 H       
  44 H44           -1.1250     3.5982    -3.4905 H       
  45 H45            0.0761     4.8495    -3.0908 H       
  46 H46            4.6945     6.0318    -7.1631 H       
  47 H47            3.8518     4.4746    -6.8835 H       
@<TRIPOS>BOND
   1    1    2 1
   2    1   10 1
   3    1   11 1
   4    1   22 1
   5    2    3 ar
   6    2    5 ar
   7    3   13 1
   8    3    8 ar
   9    4   11 1
  10    4   14 2
  11    4   13 am
  12    5    6 ar
  13    5   31 1
  14    6    7 ar
  15    7    8 ar
  16    7   32 1
  17    8   33 1
  18    9   10 1
  19    9   12 1
  20    9   15 am
  21   10   34 1
  22   10   35 1
  23   11   23 1
  24   11   12 1
  25   12   26 1
  26   12   36 1
  27   13   24 1
  28   15   16 2
  29   15   17 2
  30   15   18 1
  31   18   20 ar
  32   18   19 ar
  33   19   21 ar
  34   19   37 1
  35   20   28 ar
  36   20   38 1
  37   21   25 ar
  38   21   39 1
  39   24   40 1
  40   24   41 1
  41   24   42 1
  42   25   28 ar
  43   25   27 1
  44   26   43 1
  45   26   44 1
  46   26   45 1
  47   27   30 1
  48   28   29 1
  49   29   30 1
  50   30   46 1
  51   30   47 1

#	End of record

