#	Name: ASD01914975
#	Creating user name:	WinNT
#	Creation time:	15. 06. 2019 20:04

#	Modifying user name:	WinNT
#	Modification time:	15. 06. 2019 20:04

#	Program:	/corina/corina34_cracker 3.40 0067  02.08.2006

@<TRIPOS>MOLECULE
ASD01914975
  36   38    0    0    0
SMALL
NO_CHARGES


@<TRIPOS>ATOM
   1 C1            -0.3852     1.7156     0.1130 C.ar    
   2 C2            -0.5116     0.3649     0.3825 C.ar    
   3 N3             0.5354    -0.3606     0.7137 N.ar    
   4 C4             1.7513     0.1661     0.8036 C.ar    
   5 C5             1.9584     1.5178     0.5473 C.ar    
   6 C6             0.8704     2.3120     0.1945 C.ar    
   7 C7            -1.8683    -0.2855     0.2963 C.3     
   8 O8             1.0300     3.6349    -0.0640 O.3     
   9 C9             2.2796     4.1591     0.0398 C.ar    
  10 C10            3.2186     3.9704    -0.9692 C.ar    
  11 N11            4.4243     4.4967    -0.8307 N.ar    
  12 C12            4.7398     5.1910     0.2441 C.ar    
  13 N13            3.8784     5.3917     1.2211 N.ar    
  14 C14            2.6509     4.9031     1.1551 C.ar    
  15 C15            2.8974    -0.6934     1.1807 C.2     
  16 N16            2.7036    -2.0035     1.4307 N.am    
  17 O17            4.0122    -0.2172     1.2645 O.2     
  18 C18            3.7940    -2.8334     1.6819 C.ar    
  19 C19            3.5989    -4.2018     1.8232 C.ar    
  20 C20            4.6904    -5.0168     2.0723 C.ar    
  21 C21            5.9441    -4.4326     2.1717 C.ar    
  22 C22            6.0666    -3.0617     2.0202 C.ar    
  23 N23            5.0072    -2.3110     1.7782 N.ar    
  24 F24            7.2849    -2.4857     2.1163 F       
  25 H25           -1.2504     2.3005    -0.1622 H       
  26 H26            2.9477     1.9446     0.6212 H       
  27 H27           -2.0300    -0.6557    -0.7161 H       
  28 H28           -1.9179    -1.1169     0.9994 H       
  29 H29           -2.6381     0.4456     0.5431 H       
  30 H30            2.9670     3.4022    -1.8525 H       
  31 H31            5.7329     5.6073     0.3267 H       
  32 H32            1.9501     5.0717     1.9593 H       
  33 H33            1.8050    -2.3686     1.4358 H       
  34 H34            2.6085    -4.6245     1.7403 H       
  35 H35            4.5679    -6.0837     2.1868 H       
  36 H36            6.8156    -5.0403     2.3656 H       
@<TRIPOS>BOND
   1    1    2 ar
   2    1    6 ar
   3    1   25 1
   4    2    3 ar
   5    2    7 1
   6    3    4 ar
   7    4    5 ar
   8    4   15 1
   9    5    6 ar
  10    5   26 1
  11    6    8 1
  12    7   27 1
  13    7   28 1
  14    7   29 1
  15    8    9 1
  16    9   10 ar
  17    9   14 ar
  18   10   11 ar
  19   10   30 1
  20   11   12 ar
  21   12   13 ar
  22   12   31 1
  23   13   14 ar
  24   14   32 1
  25   15   16 am
  26   15   17 2
  27   16   18 1
  28   16   33 1
  29   18   19 ar
  30   18   23 ar
  31   19   20 ar
  32   19   34 1
  33   20   21 ar
  34   20   35 1
  35   21   22 ar
  36   21   36 1
  37   22   23 ar
  38   22   24 1

#	End of record

