#	Name: ASD02030234
#	Creating user name:	WinNT
#	Creation time:	15. 06. 2019 20:14

#	Modifying user name:	WinNT
#	Modification time:	15. 06. 2019 20:14

#	Program:	/corina/corina34_cracker 3.40 0067  02.08.2006

@<TRIPOS>MOLECULE
ASD02030234
  60   64    0    0    0
SMALL
NO_CHARGES


@<TRIPOS>ATOM
   1 N1            -1.1802     1.9225    -0.6155 N.am    
   2 C2            -0.9858     0.4661    -0.5854 C.3     
   3 C3            -1.6139    -0.0858     0.7003 C.3     
   4 N4            -2.9770     0.4494     0.8243 N.am    
   5 C5            -3.1714     1.9059     0.7943 C.3     
   6 C6            -2.5427     2.4579    -0.4858 C.3     
   7 C7            -0.1274     2.7524    -0.7538 C.2     
   8 C8             1.2472     2.2082    -0.7581 C.2     
   9 N9             2.3582     2.9127    -0.7702 N.2     
  10 N10            1.5825     0.9051    -0.7443 N.2     
  11 C11            2.8895     0.8396    -0.7533 C.2     
  12 N12            3.3608     2.1034    -0.7694 N.pl3   
  13 O13           -0.3080     3.9484    -0.8751 O.2     
  14 C14           -4.0298    -0.3805     0.9627 C.2     
  15 C15           -3.8310    -1.8441     0.8979 C.ar    
  16 O16           -5.1429     0.0743     1.1408 O.2     
  17 C17           -2.4912     3.9854    -0.4152 C.3     
  18 C18           -3.3741     2.0241    -1.6947 C.3     
  19 C19            4.7124     2.4735    -0.7834 C.ar    
  20 C20            5.0656     3.8158    -0.7995 C.ar    
  21 C21            6.3999     4.1776    -0.8128 C.ar    
  22 C22            7.3821     3.2029    -0.8106 C.ar    
  23 C23            7.0322     1.8651    -0.7946 C.ar    
  24 C24            5.7010     1.4981    -0.7755 C.ar    
  25 C25           -2.7931    -2.4429     1.6140 C.ar    
  26 Cl26           6.8434     5.8559    -0.8328 Cl      
  27 C27           -4.6836    -2.6336     0.1250 C.ar    
  28 C28           -4.4924    -3.9989     0.0688 C.ar    
  29 C29           -3.4587    -4.5855     0.7768 C.ar    
  30 C30           -2.6130    -3.8089     1.5492 C.ar    
  31 C31           -6.2676    -4.0741    -1.7718 C.3     
  32 O32           -6.0325    -5.1209    -2.7226 O.3     
  33 C33           -4.7880    -5.3841    -2.0616 C.3     
  34 C34           -5.4121    -4.8531    -0.7652 C.3     
  35 F35           -6.1126    -5.8097    -0.0226 F       
  36 H36           -1.4691     0.0145    -1.4518 H       
  37 H37            0.0802     0.2390    -0.5985 H       
  38 H38           -1.6513    -1.1741     0.6513 H       
  39 H39           -1.0196     0.2239     1.5600 H       
  40 H40           -4.2374     2.1329     0.8074 H       
  41 H41           -2.6880     2.3574     1.6606 H       
  42 H42            3.4832    -0.0626    -0.7459 H       
  43 H43           -1.8081     4.2896     0.3779 H       
  44 H44           -2.1407     4.3816    -1.3683 H       
  45 H45           -3.4879     4.3733    -0.2049 H       
  46 H46           -4.3890     2.4088    -1.5947 H       
  47 H47           -2.9241     2.4187    -2.6057 H       
  48 H48           -3.4016     0.9356    -1.7450 H       
  49 H49            4.2991     4.5766    -0.8019 H       
  50 H50            8.4239     3.4874    -0.8217 H       
  51 H51            7.8009     1.1066    -0.7933 H       
  52 H52            5.4288     0.4530    -0.7627 H       
  53 H53           -2.1323    -1.8379     2.2172 H       
  54 H54           -5.4914    -2.1770    -0.4275 H       
  55 H55           -3.3139    -5.6547     0.7299 H       
  56 H56           -1.8078    -4.2730     2.0995 H       
  57 H57           -5.8309    -3.1188    -2.0630 H       
  58 H58           -7.3127    -3.9860    -1.4748 H       
  59 H59           -4.5366    -6.4439    -2.0185 H       
  60 H60           -3.9649    -4.7709    -2.4285 H       
@<TRIPOS>BOND
   1    1    2 1
   2    1    7 am
   3    1    6 1
   4    2    3 1
   5    2   36 1
   6    2   37 1
   7    3    4 1
   8    3   38 1
   9    3   39 1
  10    4    5 1
  11    4   14 am
  12    5    6 1
  13    5   40 1
  14    5   41 1
  15    6   17 1
  16    6   18 1
  17    7    8 1
  18    7   13 2
  19    8    9 2
  20    8   10 1
  21    9   12 1
  22   10   11 2
  23   11   12 1
  24   11   42 1
  25   12   19 1
  26   14   15 1
  27   14   16 2
  28   15   27 ar
  29   15   25 ar
  30   17   43 1
  31   17   44 1
  32   17   45 1
  33   18   46 1
  34   18   47 1
  35   18   48 1
  36   19   20 ar
  37   19   24 ar
  38   20   21 ar
  39   20   49 1
  40   21   22 ar
  41   21   26 1
  42   22   23 ar
  43   22   50 1
  44   23   24 ar
  45   23   51 1
  46   24   52 1
  47   25   30 ar
  48   25   53 1
  49   27   28 ar
  50   27   54 1
  51   28   29 ar
  52   28   34 1
  53   29   30 ar
  54   29   55 1
  55   30   56 1
  56   31   32 1
  57   31   34 1
  58   31   57 1
  59   31   58 1
  60   32   33 1
  61   33   34 1
  62   33   59 1
  63   33   60 1
  64   34   35 1

#	End of record

