#	Name: ASD01150730
#	Creating user name:	WinNT
#	Creation time:	15. 06. 2019 19:04

#	Modifying user name:	WinNT
#	Modification time:	15. 06. 2019 19:04

#	Program:	/corina/corina34_cracker 3.40 0067  02.08.2006

@<TRIPOS>MOLECULE
ASD01150730
  42   45    0    0    0
SMALL
NO_CHARGES


@<TRIPOS>ATOM
   1 C1            -0.0536     1.1747     0.2640 C.2     
   2 O2             0.6311     0.9491    -0.7154 O.2     
   3 C3             0.3940     0.7241     1.5984 C.ar    
   4 C4             1.5407    -0.0631     1.7248 C.ar    
   5 C5             1.9528    -0.4802     2.9732 C.ar    
   6 C6             1.2329    -0.1205     4.0990 C.ar    
   7 C7             0.0957     0.6593     3.9811 C.ar    
   8 C8            -0.3245     1.0882     2.7393 C.ar    
   9 N9            -2.4610     3.9794     0.0014 N.ar    
  10 C10           -1.3461     3.3078     0.1268 C.ar    
  11 C11           -1.3265     1.9027     0.1210 C.ar    
  12 C12           -2.5344     1.2000    -0.0232 C.ar    
  13 C13           -3.7246     1.9568    -0.1569 C.ar    
  14 C14           -4.9698     1.3313    -0.3055 C.ar    
  15 C15           -6.0955     2.0912    -0.4320 C.ar    
  16 C16           -6.0216     3.4821    -0.4158 C.ar    
  17 C17           -4.8265     4.1202    -0.2734 C.ar    
  18 C18           -3.6461     3.3709    -0.1395 C.ar    
  19 C19           -2.5625    -0.2776    -0.0355 C.ar    
  20 C20           -3.2086    -0.9754     0.9872 C.ar    
  21 C21           -3.2315    -2.3544     0.9693 C.ar    
  22 C22           -2.6156    -3.0464    -0.0587 C.ar    
  23 C23           -1.9736    -2.3613    -1.0753 C.ar    
  24 C24           -1.9481    -0.9822    -1.0728 C.ar    
  25 C25           -0.0492     4.0597     0.2815 C.3     
  26 Br26          -7.7756     1.2468    -0.6325 Br      
  27 H27            2.1033    -0.3449     0.8470 H       
  28 H28            2.8391    -1.0893     3.0724 H       
  29 H29            1.5598    -0.4502     5.0741 H       
  30 H30           -0.4616     0.9361     4.8637 H       
  31 H31           -1.2095     1.7005     2.6491 H       
  32 H32           -5.0378     0.2535    -0.3201 H       
  33 H33           -6.9258     4.0637    -0.5179 H       
  34 H34           -4.7868     5.1994    -0.2632 H       
  35 H35           -3.6890    -0.4365     1.7904 H       
  36 H36           -3.7308    -2.8953     1.7595 H       
  37 H37           -2.6359    -4.1262    -0.0675 H       
  38 H38           -1.4947    -2.9076    -1.8744 H       
  39 H39           -1.4502    -0.4486    -1.8690 H       
  40 H40            0.1534     4.2206     1.3404 H       
  41 H41            0.7617     3.4800    -0.1596 H       
  42 H42           -0.1248     5.0222    -0.2243 H       
@<TRIPOS>BOND
   1    1    2 2
   2    1    3 1
   3    1   11 1
   4    3    4 ar
   5    3    8 ar
   6    4    5 ar
   7    4   27 1
   8    5    6 ar
   9    5   28 1
  10    6    7 ar
  11    6   29 1
  12    7    8 ar
  13    7   30 1
  14    8   31 1
  15    9   10 ar
  16    9   18 ar
  17   10   11 ar
  18   10   25 1
  19   11   12 ar
  20   12   13 ar
  21   12   19 1
  22   13   14 ar
  23   13   18 ar
  24   14   15 ar
  25   14   32 1
  26   15   16 ar
  27   15   26 1
  28   16   17 ar
  29   16   33 1
  30   17   18 ar
  31   17   34 1
  32   19   20 ar
  33   19   24 ar
  34   20   21 ar
  35   20   35 1
  36   21   22 ar
  37   21   36 1
  38   22   23 ar
  39   22   37 1
  40   23   24 ar
  41   23   38 1
  42   24   39 1
  43   25   40 1
  44   25   41 1
  45   25   42 1

#	End of record

