#	Name: ASD03330752
#	Creating user name:	WinNT
#	Creation time:	15. 06. 2019 20:37

#	Modifying user name:	WinNT
#	Modification time:	15. 06. 2019 20:37

#	Program:	/corina/corina34_cracker 3.40 0067  02.08.2006

@<TRIPOS>MOLECULE
ASD03330752
  64   67    0    0    0
SMALL
NO_CHARGES


@<TRIPOS>ATOM
   1 C1             0.3962     1.6172     0.1575 C.2     
   2 N2             0.4252     0.2978     0.4853 N.pl3   
   3 C3             1.6751     2.0779     0.2380 C.2     
   4 N4             2.4653     1.0409     0.5936 N.2     
   5 C5             1.7244    -0.0329     0.7386 C.2     
   6 C6             2.2157    -1.3763     1.1132 C.ar    
   7 C7             2.1182     3.4597    -0.0177 C.2     
   8 O8             1.3076     4.3096    -0.3337 O.2     
   9 C9             3.8622     5.1557    -0.1556 C.3     
  10 N10            3.4217     3.7818     0.0986 N.am    
  11 C11            5.1625     5.4233     0.6050 C.3     
  12 C12            4.0965     5.3429    -1.6325 C.2     
  13 O13            4.4180     4.3971    -2.3202 O.2     
  14 C14           -0.7423    -0.5849     0.5606 C.3     
  15 C15           -1.6023    -0.3882    -0.6917 C.3     
  16 C16           -2.5910     0.7509    -0.4647 C.3     
  17 N17           -2.0117     1.7891     0.3899 N.3     
  18 C18           -0.8298     2.3993    -0.2369 C.3     
  19 C19            1.5586    -2.1121     2.1006 C.ar    
  20 C20            3.3359    -1.9159     0.4761 C.ar    
  21 C21            3.7908    -3.1721     0.8303 C.ar    
  22 C22            3.1383    -3.8953     1.8141 C.ar    
  23 C23            2.0215    -3.3658     2.4466 C.ar    
  24 C24           -3.0124     2.8090     0.7310 C.3     
  25 N25            3.9487     6.5615    -2.1891 N.am    
  26 C26            4.0656     6.7229    -3.6405 C.3     
  27 C27            5.6567     6.8364     0.2889 C.3     
  28 F28            3.5868    -5.1229     2.1562 F       
  29 F29            3.9729    -1.2115    -0.4847 F       
  30 F30            1.3897    -4.0767     3.4061 F       
  31 C31            4.9093     5.2959     2.1085 C.3     
  32 C32            6.2096     5.5636     2.8691 C.3     
  33 C33            6.7038     6.9767     2.5530 C.3     
  34 C34            6.9569     7.1040     1.0495 C.3     
  35 H35            3.0942     5.8518     0.1815 H       
  36 H36            4.0682     3.1040     0.3506 H       
  37 H37            5.9172     4.6980     0.3009 H       
  38 H38           -0.4118    -1.6221     0.6164 H       
  39 H39           -1.3277    -0.3399     1.4468 H       
  40 H40           -0.9597    -0.1470    -1.5385 H       
  41 H41           -2.1498    -1.3066    -0.9034 H       
  42 H42           -2.8598     1.1881    -1.4263 H       
  43 H43           -3.4886     0.3558     0.0109 H       
  44 H44           -0.7290     3.4304     0.1020 H       
  45 H45           -0.9413     2.3800    -1.3210 H       
  46 H46            0.6898    -1.7012     2.5933 H       
  47 H47            4.6566    -3.5903     0.3385 H       
  48 H48           -3.8414     2.3414     1.2622 H       
  49 H49           -2.5557     3.5679     1.3663 H       
  50 H50           -3.3826     3.2746    -0.1824 H       
  51 H51            3.7649     7.3316    -1.6287 H       
  52 H52            3.9172     7.7704    -3.9027 H       
  53 H53            5.0571     6.4047    -3.9627 H       
  54 H54            3.3097     6.1137    -4.1359 H       
  55 H55            5.8370     6.9271    -0.7822 H       
  56 H56            4.9020     7.5617     0.5930 H       
  57 H57            4.1547     6.0212     2.4126 H       
  58 H58            4.5573     4.2892     2.3337 H       
  59 H59            6.0293     5.4728     3.9402 H       
  60 H60            6.9643     4.8383     2.5650 H       
  61 H61            5.9491     7.7020     2.8571 H       
  62 H62            7.6301     7.1673     3.0949 H       
  63 H63            7.7116     6.3787     0.7454 H       
  64 H64            7.3090     8.1107     0.8243 H       
@<TRIPOS>BOND
   1    1    2 1
   2    1    3 2
   3    1   18 1
   4    2   14 1
   5    2    5 1
   6    3    4 1
   7    3    7 1
   8    4    5 2
   9    5    6 1
  10    6   20 ar
  11    6   19 ar
  12    7    8 2
  13    7   10 am
  14    9   10 1
  15    9   11 1
  16    9   12 1
  17    9   35 1
  18   10   36 1
  19   11   27 1
  20   11   31 1
  21   11   37 1
  22   12   13 2
  23   12   25 am
  24   14   15 1
  25   14   38 1
  26   14   39 1
  27   15   16 1
  28   15   40 1
  29   15   41 1
  30   16   17 1
  31   16   42 1
  32   16   43 1
  33   17   18 1
  34   17   24 1
  35   18   44 1
  36   18   45 1
  37   19   23 ar
  38   19   46 1
  39   20   21 ar
  40   20   29 1
  41   21   22 ar
  42   21   47 1
  43   22   23 ar
  44   22   28 1
  45   23   30 1
  46   24   48 1
  47   24   49 1
  48   24   50 1
  49   25   26 1
  50   25   51 1
  51   26   52 1
  52   26   53 1
  53   26   54 1
  54   27   34 1
  55   27   55 1
  56   27   56 1
  57   31   32 1
  58   31   57 1
  59   31   58 1
  60   32   33 1
  61   32   59 1
  62   32   60 1
  63   33   34 1
  64   33   61 1
  65   33   62 1
  66   34   63 1
  67   34   64 1

#	End of record

