#	Name: ASD02038843
#	Creating user name:	WinNT
#	Creation time:	15. 06. 2019 20:17

#	Modifying user name:	WinNT
#	Modification time:	15. 06. 2019 20:17

#	Program:	/corina/corina34_cracker 3.40 0067  02.08.2006

@<TRIPOS>MOLECULE
ASD02038843
  53   56    0    0    0
SMALL
NO_CHARGES


@<TRIPOS>ATOM
   1 C1            -1.2781    -0.8504     0.4670 C.2     
   2 C2            -0.0619    -0.0354     0.3023 C.2     
   3 N3             1.1360    -0.6349     0.1535 N.am    
   4 C4             1.2425    -2.0928     0.2504 C.3     
   5 C5             1.2146    -2.6916    -1.1323 C.ar    
   6 C6             2.3315     0.1713    -0.1051 C.3     
   7 O7            -0.1388     1.1784     0.3005 O.2     
   8 N8            -1.3371    -2.2063     0.5002 N.2     
   9 C9            -2.5768    -2.5699     0.6592 C.2     
  10 N10           -3.3572    -1.4604     0.7337 N.pl3   
  11 C11           -2.5494    -0.3799     0.6200 C.2     
  12 C12            2.3974    -3.0121    -1.7677 C.ar    
  13 C13            2.1176     1.0153    -1.3654 C.3     
  14 C14            3.3394     1.9117    -1.5833 C.3     
  15 O15            3.5395     2.7307    -0.4294 O.3     
  16 C16            3.7914     1.9966     0.7705 C.3     
  17 C17            2.5878     1.1036     1.0829 C.3     
  18 C18            0.0036    -2.9238    -1.7590 C.ar    
  19 C19           -0.0307    -3.4730    -3.0278 C.ar    
  20 C20            1.1472    -3.7929    -3.6767 C.ar    
  21 C21            2.3712    -3.5655    -3.0457 C.ar    
  22 C22            3.6396    -3.9058    -3.7361 C.ar    
  23 C23            3.8059    -5.1639    -4.3120 C.ar    
  24 C24           -4.8111    -1.4371     0.9116 C.3     
  25 F25            1.1135    -4.3294    -4.9162 F       
  26 C26            4.9872    -5.4762    -4.9530 C.ar    
  27 C27            6.0073    -4.5413    -5.0241 C.ar    
  28 C28            5.8463    -3.2896    -4.4525 C.ar    
  29 C29            4.6659    -2.9665    -3.8154 C.ar    
  30 F30            7.1624    -4.8515    -5.6523 F       
  31 H31            2.1790    -2.3569     0.7418 H       
  32 H32            0.4056    -2.4805     0.8312 H       
  33 H33            3.1902    -0.4850    -0.2472 H       
  34 H34           -2.9284    -3.5892     0.7215 H       
  35 H35           -2.8541     0.6560     0.6392 H       
  36 H36            3.3417    -2.8337    -1.2749 H       
  37 H37            1.9895     0.3588    -2.2260 H       
  38 H38            1.2289     1.6343    -1.2428 H       
  39 H39            4.2209     1.2916    -1.7461 H       
  40 H40            3.1745     2.5454    -2.4546 H       
  41 H41            4.6787     1.3775     0.6384 H       
  42 H42            3.9521     2.6915     1.5948 H       
  43 H43            1.7085     1.7244     1.2551 H       
  44 H44            2.7958     0.5102     1.9733 H       
  45 H45           -0.9189    -2.6756    -1.2553 H       
  46 H46           -0.9791    -3.6524    -3.5122 H       
  47 H47            3.0115    -5.8934    -4.2564 H       
  48 H48           -5.0466    -1.4114     1.9756 H       
  49 H49           -5.2224    -0.5516     0.4270 H       
  50 H50           -5.2462    -2.3310     0.4647 H       
  51 H51            5.1169    -6.4509    -5.3997 H       
  52 H52            6.6442    -2.5640    -4.5100 H       
  53 H53            4.5413    -1.9905    -3.3700 H       
@<TRIPOS>BOND
   1    1    2 1
   2    1    8 1
   3    1   11 2
   4    2    3 am
   5    2    7 2
   6    3    4 1
   7    3    6 1
   8    4    5 1
   9    4   31 1
  10    4   32 1
  11    5   12 ar
  12    5   18 ar
  13    6   13 1
  14    6   17 1
  15    6   33 1
  16    8    9 2
  17    9   10 1
  18    9   34 1
  19   10   11 1
  20   10   24 1
  21   11   35 1
  22   12   21 ar
  23   12   36 1
  24   13   14 1
  25   13   37 1
  26   13   38 1
  27   14   15 1
  28   14   39 1
  29   14   40 1
  30   15   16 1
  31   16   17 1
  32   16   41 1
  33   16   42 1
  34   17   43 1
  35   17   44 1
  36   18   19 ar
  37   18   45 1
  38   19   20 ar
  39   19   46 1
  40   20   21 ar
  41   20   25 1
  42   21   22 1
  43   22   23 ar
  44   22   29 ar
  45   23   26 ar
  46   23   47 1
  47   24   48 1
  48   24   49 1
  49   24   50 1
  50   26   27 ar
  51   26   51 1
  52   27   28 ar
  53   27   30 1
  54   28   29 ar
  55   28   52 1
  56   29   53 1

#	End of record

