#	Name: ASD03331841
#	Creating user name:	WinNT
#	Creation time:	15. 06. 2019 20:40

#	Modifying user name:	WinNT
#	Modification time:	15. 06. 2019 20:40

#	Program:	/corina/corina34_cracker 3.40 0067  02.08.2006

@<TRIPOS>MOLECULE
ASD03331841
  62   65    0    0    0
SMALL
NO_CHARGES


@<TRIPOS>ATOM
   1 C1             0.3228     1.7335     1.0828 C.2     
   2 N2             0.3954     0.4813     1.6055 N.pl3   
   3 C3            -0.8621     0.1141     1.9667 C.2     
   4 N4            -1.6837     1.0982     1.6773 N.2     
   5 C5            -0.9779     2.1153     1.1321 C.2     
   6 C6             1.5170     2.4955     0.5687 C.3     
   7 N7             2.7327     1.8306     1.0717 N.3     
   8 C8             2.6913     0.3842     0.8144 C.3     
   9 C9             1.6453    -0.2752     1.7224 C.3     
  10 C10           -1.5243     3.4034     0.6697 C.2     
  11 O11           -0.7834     4.2430     0.1951 O.2     
  12 N12           -2.8451     3.6510     0.7727 N.am    
  13 C13           -3.3883     4.9315     0.3129 C.3     
  14 C14           -3.6686     4.8567    -1.1893 C.3     
  15 C15           -1.2423    -1.1767     2.5819 C.ar    
  16 C16           -0.2655    -2.0008     3.1414 C.ar    
  17 C17            3.8706     2.3991     0.5264 C.ar    
  18 C18           -4.6057     3.6816    -1.4754 C.3     
  19 C19           -4.6698     5.2268     1.0490 C.2     
  20 C20           -4.3273     6.1584    -1.6506 C.3     
  21 C21           -2.3531     4.6555    -1.9441 C.3     
  22 O22           -5.2737     4.3303     1.5989 O.2     
  23 N23           -5.1448     6.4872     1.0960 N.am    
  24 C24           -6.3297     6.7939     1.9011 C.3     
  25 C25           -0.6266    -3.2033     3.7135 C.ar    
  26 C26           -1.9540    -3.5926     3.7327 C.ar    
  27 C27           -2.9273    -2.7801     3.1792 C.ar    
  28 C28           -2.5800    -1.5721     2.6100 C.ar    
  29 N29            5.0587     1.9237     0.8692 N.ar    
  30 C30            6.1669     2.4438     0.3667 C.ar    
  31 C31            6.0742     3.4973    -0.5273 C.ar    
  32 C32            4.8140     3.9717    -0.8654 C.ar    
  33 N33            3.7455     3.4023    -0.3301 N.ar    
  34 Cl34           4.6413     5.2902    -1.9813 Cl      
  35 H35            1.5173     2.4883    -0.5212 H       
  36 H36            1.4823     3.5229     0.9311 H       
  37 H37            2.4278     0.2091    -0.2286 H       
  38 H38            3.6712    -0.0480     1.0171 H       
  39 H39            1.9913    -0.2564     2.7559 H       
  40 H40            1.4822    -1.3058     1.4073 H       
  41 H41           -3.4360     2.9813     1.1512 H       
  42 H42           -2.6660     5.7240     0.5088 H       
  43 H43            0.7712    -1.6983     3.1264 H       
  44 H44           -5.5429     3.8250    -0.9376 H       
  45 H45           -4.8054     3.6284    -2.5456 H       
  46 H46           -4.1364     2.7543    -1.1467 H       
  47 H47           -3.6662     6.9972    -1.4330 H       
  48 H48           -4.5133     6.1111    -2.7236 H       
  49 H49           -5.2719     6.2941    -1.1238 H       
  50 H50           -1.8838     3.7282    -1.6155 H       
  51 H51           -2.5528     4.6022    -3.0144 H       
  52 H52           -1.6855     5.4927    -1.7403 H       
  53 H53           -4.7021     7.1913     0.5969 H       
  54 H54           -6.5619     7.8555     1.8162 H       
  55 H55           -7.1751     6.2072     1.5415 H       
  56 H56           -6.1339     6.5471     2.9446 H       
  57 H57            0.1287    -3.8421     4.1469 H       
  58 H58           -2.2315    -4.5350     4.1814 H       
  59 H59           -3.9618    -3.0897     3.1969 H       
  60 H60           -3.3407    -0.9385     2.1785 H       
  61 H61            7.1322     2.0516     0.6507 H       
  62 H62            6.9628     3.9405    -0.9521 H       
@<TRIPOS>BOND
   1    1    2 1
   2    1    6 1
   3    1    5 2
   4    2    3 1
   5    2    9 1
   6    3    4 2
   7    3   15 1
   8    4    5 1
   9    5   10 1
  10    6    7 1
  11    6   35 1
  12    6   36 1
  13    7    8 1
  14    7   17 1
  15    8    9 1
  16    8   37 1
  17    8   38 1
  18    9   39 1
  19    9   40 1
  20   10   11 2
  21   10   12 am
  22   12   13 1
  23   12   41 1
  24   13   14 1
  25   13   19 1
  26   13   42 1
  27   14   18 1
  28   14   20 1
  29   14   21 1
  30   15   16 ar
  31   15   28 ar
  32   16   25 ar
  33   16   43 1
  34   17   29 ar
  35   17   33 ar
  36   18   44 1
  37   18   45 1
  38   18   46 1
  39   19   22 2
  40   19   23 am
  41   20   47 1
  42   20   48 1
  43   20   49 1
  44   21   50 1
  45   21   51 1
  46   21   52 1
  47   23   24 1
  48   23   53 1
  49   24   54 1
  50   24   55 1
  51   24   56 1
  52   25   26 ar
  53   25   57 1
  54   26   27 ar
  55   26   58 1
  56   27   28 ar
  57   27   59 1
  58   28   60 1
  59   29   30 ar
  60   30   31 ar
  61   30   61 1
  62   31   32 ar
  63   31   62 1
  64   32   33 ar
  65   32   34 1

#	End of record

