#	Name: ASD03700003
#	Creating user name:	WinNT
#	Creation time:	15. 06. 2019 20:43

#	Modifying user name:	WinNT
#	Modification time:	15. 06. 2019 20:43

#	Program:	/corina/corina34_cracker 3.40 0067  02.08.2006

@<TRIPOS>MOLECULE
ASD03700003
  56   60    0    0    0
SMALL
NO_CHARGES


@<TRIPOS>ATOM
   1 C1             0.0106     1.4606     0.0724 C.ar    
   2 C2             0.4226     0.8541    -1.1229 C.ar    
   3 C3            -0.3733     0.8790    -2.2317 C.ar    
   4 C4            -1.6226     1.5193    -2.1802 C.ar    
   5 C5            -2.0359     2.1308    -0.9715 C.ar    
   6 C6            -1.2001     2.0857     0.1544 C.ar    
   7 N7            -2.4201     1.5572    -3.2543 N.ar    
   8 C8            -3.5897     2.1515    -3.2226 C.ar    
   9 C9            -4.0644     2.7733    -2.0746 C.ar    
  10 C10           -3.2935     2.7733    -0.9255 C.ar    
  11 O11            0.8227     1.4207     1.1622 O.3     
  12 C12            0.3464     2.0568     2.3499 C.3     
  13 C13            1.9951    -0.3658    -2.4231 C.3     
  14 O14            1.6303     0.2338    -1.1783 O.3     
  15 O15           -3.7313     3.3719     0.2097 O.3     
  16 C16           -4.9116     4.0435     0.1623 C.ar    
  17 C17           -4.9193     5.4032     0.2978 C.ar    
  18 C18           -6.1390     6.0984     0.2485 C.ar    
  19 C19           -7.3417     5.3745     0.0586 C.ar    
  20 C20           -7.2992     3.9810    -0.0764 C.ar    
  21 C21           -6.1011     3.3349    -0.0301 C.ar    
  22 C22           -6.1883     7.4965     0.3843 C.ar    
  23 C23           -7.3770     8.1570     0.3350 C.ar    
  24 C24           -8.5798     7.4878     0.1509 C.ar    
  25 C25           -8.6052     6.1068     0.0087 C.ar    
  26 C26           -9.8809     5.3940    -0.1873 C.2     
  27 N27          -11.0467     6.0662    -0.1136 N.am    
  28 O28           -9.8811     4.1994    -0.4154 O.2     
  29 C29          -12.2595     5.3717    -0.1743 C.ar    
  30 C30          -12.3640     4.1041     0.3835 C.ar    
  31 C31          -13.5625     3.4207     0.3222 C.ar    
  32 C32          -14.6588     3.9978    -0.2944 C.ar    
  33 C33          -14.5573     5.2606    -0.8515 C.ar    
  34 C34          -13.3629     5.9509    -0.7875 C.ar    
  35 Cl35         -16.1638     3.1360    -0.3698 Cl      
  36 H36           -0.0433     0.4082    -3.1459 H       
  37 H37           -1.5097     2.5498     1.0791 H       
  38 H38           -4.1998     2.1577    -4.1136 H       
  39 H39           -5.0312     3.2547    -2.0790 H       
  40 H40            1.0887     1.9516     3.1411 H       
  41 H41            0.1742     3.1146     2.1515 H       
  42 H42           -0.5871     1.5892     2.6630 H       
  43 H43            1.2621    -1.1277    -2.6880 H       
  44 H44            2.0223     0.3981    -3.2002 H       
  45 H45            2.9793    -0.8251    -2.3305 H       
  46 H46           -3.9934     5.9401     0.4423 H       
  47 H47           -8.2118     3.4219    -0.2211 H       
  48 H48           -6.0705     2.2604    -0.1345 H       
  49 H49           -5.2737     8.0521     0.5297 H       
  50 H50           -7.3853     9.2317     0.4423 H       
  51 H51           -9.5035     8.0464     0.1178 H       
  52 H52          -11.0448     7.0315    -0.0185 H       
  53 H53          -11.5086     3.6531     0.8646 H       
  54 H54          -13.6442     2.4348     0.7555 H       
  55 H55          -15.4142     5.7086    -1.3324 H       
  56 H56          -13.2842     6.9364    -1.2224 H       
@<TRIPOS>BOND
   1    1    2 ar
   2    1   11 1
   3    1    6 ar
   4    2    3 ar
   5    2   14 1
   6    3    4 ar
   7    3   36 1
   8    4    5 ar
   9    4    7 ar
  10    5    6 ar
  11    5   10 ar
  12    6   37 1
  13    7    8 ar
  14    8    9 ar
  15    8   38 1
  16    9   10 ar
  17    9   39 1
  18   10   15 1
  19   11   12 1
  20   12   40 1
  21   12   41 1
  22   12   42 1
  23   13   14 1
  24   13   43 1
  25   13   44 1
  26   13   45 1
  27   15   16 1
  28   16   17 ar
  29   16   21 ar
  30   17   18 ar
  31   17   46 1
  32   18   19 ar
  33   18   22 ar
  34   19   20 ar
  35   19   25 ar
  36   20   21 ar
  37   20   47 1
  38   21   48 1
  39   22   23 ar
  40   22   49 1
  41   23   24 ar
  42   23   50 1
  43   24   25 ar
  44   24   51 1
  45   25   26 1
  46   26   27 am
  47   26   28 2
  48   27   29 1
  49   27   52 1
  50   29   30 ar
  51   29   34 ar
  52   30   31 ar
  53   30   53 1
  54   31   32 ar
  55   31   54 1
  56   32   33 ar
  57   32   35 1
  58   33   34 ar
  59   33   55 1
  60   34   56 1

#	End of record

