#	Name: ASD03240279
#	Creating user name:	WinNT
#	Creation time:	15. 06. 2019 20:34

#	Modifying user name:	WinNT
#	Modification time:	15. 06. 2019 20:34

#	Program:	/corina/corina34_cracker 3.40 0067  02.08.2006

@<TRIPOS>MOLECULE
ASD03240279
 101  108    0    0    0
SMALL
NO_CHARGES


@<TRIPOS>ATOM
   1 C1             0.3219     2.3102     1.0914 C.2     
   2 N2             0.4503     1.0446     1.6129 N.pl3   
   3 C3            -2.5144     4.6978     0.5652 C.3     
   4 C4            -1.0492     4.2630     0.4936 C.3     
   5 N5            -0.9124     2.9144     1.0494 N.pl3   
   6 N6             1.3711     2.9393     0.6418 N.2     
   7 N7            -2.6512     6.0464     0.0094 N.pl3   
   8 C8            -3.8979     6.6566    -0.0330 C.ar    
   9 C9            -4.0288     7.9483    -0.5654 C.ar    
  10 C10           -5.2770     8.5546    -0.6064 C.ar    
  11 C11           -6.3945     7.8755    -0.1177 C.ar    
  12 C12           -6.2543     6.5883     0.4110 C.ar    
  13 C13           -5.0170     5.9854     0.4466 C.ar    
  14 C14           -7.7230     8.5157    -0.1586 C.2     
  15 N15           -8.8018     7.8599     0.3132 N.am    
  16 O16           -7.8447     9.6351    -0.6180 O.2     
  17 C17          -10.0427     8.5068     0.3756 C.ar    
  18 C18          -11.2131     7.7832     0.1883 C.ar    
  19 C19          -10.1027     9.8706     0.6305 C.ar    
  20 C20          -11.3257    10.5082     0.6925 C.ar    
  21 C21          -12.4960     9.7856     0.4995 C.ar    
  22 C22          -12.4362     8.4206     0.2499 C.ar    
  23 N23          -13.7354    10.4315     0.5628 N.pl3   
  24 C24          -14.9521     9.7229     0.1582 C.3     
  25 C25          -13.8165    11.8164     1.0336 C.3     
  26 C26           -2.8377     8.6637    -1.0820 C.ar    
  27 C27           -2.8699     9.2484    -2.3480 C.ar    
  28 C28           -1.7632     9.9134    -2.8277 C.ar    
  29 C29           -0.6104    10.0018    -2.0480 C.ar    
  30 C30           -0.5778     9.4168    -0.7825 C.ar    
  31 C31           -1.6865     8.7570    -0.2999 C.ar    
  32 C32          -14.4318    11.8442     2.4089 C.ar    
  33 C33          -15.4363    10.2687    -1.1605 C.ar    
  34 C34          -16.4038    11.2252    -1.1911 C.ar    
  35 C35          -16.8641    11.7418    -2.4010 C.ar    
  36 C36          -16.3594    11.3047    -3.5869 C.ar    
  37 C37          -15.3586    10.3181    -3.5952 C.ar    
  38 C38          -14.8868     9.7966    -2.3648 C.ar    
  39 C39          -15.7663    12.0667     2.5569 C.ar    
  40 C40          -16.3531    12.0959     3.8208 C.ar    
  41 C41          -15.6087    11.9028     4.9436 C.ar    
  42 C42          -14.2274    11.6697     4.8306 C.ar    
  43 C43          -13.6316    11.6347     3.5452 C.ar    
  44 C44          -13.4262    11.4659     5.9671 C.ar    
  45 C45          -12.0919    11.2430     5.8191 C.ar    
  46 C46          -11.5050    11.2139     4.5553 C.ar    
  47 C47          -12.2503    11.4017     3.4321 C.ar    
  48 C48          -14.8132     9.8419    -4.7998 C.ar    
  49 C49          -13.8453     8.8857    -4.7691 C.ar    
  50 C50          -13.3851     8.3690    -3.5592 C.ar    
  51 C51          -13.8861     8.8099    -2.3732 C.ar    
  52 C52            0.5814    10.7175    -2.5649 C.ar    
  53 C53            1.7350    10.8074    -1.7878 C.ar    
  54 C54            2.8409    11.4746    -2.2739 C.ar    
  55 C55            2.8058    12.0540    -3.5295 C.ar    
  56 C56            1.6635    11.9683    -4.3050 C.ar    
  57 C57            0.5539    11.2978    -3.8318 C.ar    
  58 H58            1.3217     0.6199     1.6463 H       
  59 H59           -0.3305     0.5764     1.9476 H       
  60 H60           -3.1278     4.0039    -0.0097 H       
  61 H61           -2.8430     4.6980     1.6044 H       
  62 H62           -0.7206     4.2627    -0.5457 H       
  63 H63           -0.4358     4.9568     1.0685 H       
  64 H64           -1.6926     2.4477     1.3877 H       
  65 H65            1.2805     3.8322     0.2738 H       
  66 H66           -1.8710     6.5130    -0.3289 H       
  67 H67           -5.3831     9.5488    -1.0147 H       
  68 H68           -7.1197     6.0643     0.7890 H       
  69 H69           -4.9141     4.9913     0.8559 H       
  70 H70           -8.7189     6.9400     0.6095 H       
  71 H71          -11.1665     6.7218    -0.0058 H       
  72 H72           -9.1926    10.4324     0.7805 H       
  73 H73          -11.3723    11.5687     0.8914 H       
  74 H74          -13.3462     7.8587     0.0998 H       
  75 H75          -14.7358     8.6597     0.0540 H       
  76 H76          -15.7236     9.8643     0.9151 H       
  77 H77          -12.8153    12.2454     1.0747 H       
  78 H78          -14.4329    12.3978     0.3479 H       
  79 H79           -3.7624     9.1794    -2.9521 H       
  80 H80           -1.7881    10.3662    -3.8079 H       
  81 H81            0.3151     9.4850    -0.1789 H       
  82 H82           -1.6615     8.3044     0.6803 H       
  83 H83          -16.8215    11.5892    -0.2640 H       
  84 H84          -17.6331    12.5001    -2.3974 H       
  85 H85          -16.7263    11.7136    -4.5167 H       
  86 H86          -16.3796    12.2232     1.6819 H       
  87 H87          -17.4144    12.2748     3.9104 H       
  88 H88          -16.0770    11.9289     5.9164 H       
  89 H89          -13.8671    11.4865     6.9528 H       
  90 H90          -11.4784    11.0867     6.6941 H       
  91 H91          -10.4436    11.0358     4.4656 H       
  92 H92          -11.7820    11.3762     2.4593 H       
  93 H93          -15.1605    10.2326    -5.7448 H       
  94 H94          -13.4278     8.5215    -5.6962 H       
  95 H95          -12.6166     7.6102    -3.5629 H       
  96 H96          -13.5196     8.4006    -1.4433 H       
  97 H97            1.7632    10.3560    -0.8070 H       
  98 H98            3.7353    11.5449    -1.6727 H       
  99 H99            3.6735    12.5755    -3.9058 H       
 100 H100           1.6416    12.4228    -5.2844 H       
 101 H101          -0.3375    11.2315    -4.4381 H       
@<TRIPOS>BOND
   1    1    2 1
   2    1    6 2
   3    1    5 1
   4    2   58 1
   5    2   59 1
   6    3    4 1
   7    3    7 1
   8    3   60 1
   9    3   61 1
  10    4    5 1
  11    4   62 1
  12    4   63 1
  13    5   64 1
  14    6   65 1
  15    7    8 1
  16    7   66 1
  17    8    9 ar
  18    8   13 ar
  19    9   10 ar
  20    9   26 1
  21   10   11 ar
  22   10   67 1
  23   11   12 ar
  24   11   14 1
  25   12   13 ar
  26   12   68 1
  27   13   69 1
  28   14   15 am
  29   14   16 2
  30   15   17 1
  31   15   70 1
  32   17   18 ar
  33   17   19 ar
  34   18   22 ar
  35   18   71 1
  36   19   20 ar
  37   19   72 1
  38   20   21 ar
  39   20   73 1
  40   21   22 ar
  41   21   23 1
  42   22   74 1
  43   23   24 1
  44   23   25 1
  45   24   33 1
  46   24   75 1
  47   24   76 1
  48   25   32 1
  49   25   77 1
  50   25   78 1
  51   26   27 ar
  52   26   31 ar
  53   27   28 ar
  54   27   79 1
  55   28   29 ar
  56   28   80 1
  57   29   30 ar
  58   29   52 1
  59   30   31 ar
  60   30   81 1
  61   31   82 1
  62   32   39 ar
  63   32   43 ar
  64   33   34 ar
  65   33   38 ar
  66   34   35 ar
  67   34   83 1
  68   35   36 ar
  69   35   84 1
  70   36   37 ar
  71   36   85 1
  72   37   38 ar
  73   37   48 ar
  74   38   51 ar
  75   39   40 ar
  76   39   86 1
  77   40   41 ar
  78   40   87 1
  79   41   42 ar
  80   41   88 1
  81   42   43 ar
  82   42   44 ar
  83   43   47 ar
  84   44   45 ar
  85   44   89 1
  86   45   46 ar
  87   45   90 1
  88   46   47 ar
  89   46   91 1
  90   47   92 1
  91   48   49 ar
  92   48   93 1
  93   49   50 ar
  94   49   94 1
  95   50   51 ar
  96   50   95 1
  97   51   96 1
  98   52   53 ar
  99   52   57 ar
 100   53   54 ar
 101   53   97 1
 102   54   55 ar
 103   54   98 1
 104   55   56 ar
 105   55   99 1
 106   56   57 ar
 107   56  100 1
 108   57  101 1

#	End of record

