#	Name: ASD04882436
#	Creating user name:	WinNT
#	Creation time:	15. 06. 2019 20:54

#	Modifying user name:	WinNT
#	Modification time:	15. 06. 2019 20:54

#	Program:	/corina/corina34_cracker 3.40 0067  02.08.2006

@<TRIPOS>MOLECULE
ASD04882436
  76   81    0    0    0
SMALL
NO_CHARGES


@<TRIPOS>ATOM
   1 C1            -0.2170     1.4417     0.1065 C.ar    
   2 C2             0.0330     0.0683     0.0378 C.ar    
   3 C3            -1.0247    -0.8339     0.0460 C.ar    
   4 C4            -2.3221    -0.3781     0.1219 C.ar    
   5 C5            -2.5791     0.9941     0.1908 C.ar    
   6 C6            -1.5172     1.9030     0.1880 C.ar    
   7 N7             1.3432    -0.3969    -0.0394 N.3     
   8 C8             1.9678    -0.0026    -1.3092 C.3     
   9 C9             1.3970    -1.8525     0.1515 C.3     
  10 C10            2.8603    -2.2988     0.2406 C.3     
  11 N11            3.5738    -1.8002    -0.9450 N.am    
  12 C12            3.4545    -0.3731    -1.2800 C.3     
  13 C13           -3.9689     1.4821     0.2716 C.2     
  14 O14           -4.1916     2.6760     0.3315 O.2     
  15 N15           -4.9919     0.6047     0.2789 N.am    
  16 N16            0.8501     2.3498     0.0986 N.am    
  17 C17            0.7077     3.5517    -0.4944 C.2     
  18 C18            1.7834     4.5545    -0.3953 C.2     
  19 N19            2.9704     4.4054     0.2530 N.2     
  20 C20            4.3176    -2.6291    -1.7041 C.2     
  21 O21            4.4052    -3.8032    -1.4129 O.2     
  22 C22           -6.3721     1.0893     0.3591 C.3     
  23 C23           -7.3322    -0.1019     0.3505 C.3     
  24 C24           -8.7736     0.4042     0.4343 C.3     
  25 N25           -9.6930    -0.7364     0.4261 N.am    
  26 C26          -10.1213    -1.3733     1.5296 C.2     
  27 C27          -10.2695    -1.3265    -0.7877 C.3     
  28 C28          -10.7927    -2.7162    -0.3619 C.3     
  29 C29          -11.0496    -2.5057     1.1495 C.3     
  30 O30           -0.3085     3.8089    -1.1113 O.2     
  31 C31            1.7789     5.8018    -0.9400 C.2     
  32 O32            2.9460     6.3774    -0.6097 O.3     
  33 C33            3.6538     5.5023     0.1185 C.2     
  34 C34            5.0254     5.7514     0.6909 C.3     
  35 C35            6.1545     6.0668    -0.2922 C.3     
  36 C36            5.5827     7.1732     0.5966 C.3     
  37 C37            5.0404    -2.0970    -2.9146 C.3     
  38 C38            5.8683    -3.0880    -3.7353 C.3     
  39 C39            4.5464    -2.5525    -4.2892 C.3     
  40 O40           -9.8085    -1.0827     2.6648 O.2     
  41 H41           -0.8285    -1.8946    -0.0075 H       
  42 H42           -3.1416    -1.0814     0.1277 H       
  43 H43           -1.7128     2.9638     0.2412 H       
  44 H44            1.4792    -0.5239    -2.1323 H       
  45 H45            1.8639     1.0737    -1.4469 H       
  46 H46            0.8791    -2.1178     1.0731 H       
  47 H47            0.9163    -2.3480    -0.6920 H       
  48 H48            3.3146    -1.8866     1.1416 H       
  49 H49            2.9101    -3.3873     0.2671 H       
  50 H50            3.8971    -0.1884    -2.2588 H       
  51 H51            3.9659     0.2242    -0.5251 H       
  52 H52           -4.8143    -0.3477     0.2311 H       
  53 H53            1.6912     2.1135     0.5199 H       
  54 H54           -6.5051     1.6565     1.2804 H       
  55 H55           -6.5820     1.7314    -0.4963 H       
  56 H56           -7.1993    -0.6691    -0.5707 H       
  57 H57           -7.1223    -0.7440     1.2060 H       
  58 H58           -8.9066     0.9714     1.3556 H       
  59 H59           -8.9836     1.0463    -0.4212 H       
  60 H60          -11.0908    -0.7101    -1.1534 H       
  61 H61           -9.5040    -1.4310    -1.5566 H       
  62 H62          -11.7183    -2.9611    -0.8829 H       
  63 H63          -10.0380    -3.4849    -0.5284 H       
  64 H64          -10.7999    -3.4077     1.7081 H       
  65 H65          -12.0876    -2.2227     1.3242 H       
  66 H66            0.9872     6.2442    -1.5264 H       
  67 H67            5.2778     5.1693     1.5772 H       
  68 H68            7.1498     5.6926    -0.0525 H       
  69 H69            5.9052     6.0942    -1.3530 H       
  70 H70            4.9573     7.9284     0.1205 H       
  71 H71            6.2018     7.5268     1.4210 H       
  72 H72            5.4170    -1.0779    -2.8271 H       
  73 H73            6.7893    -2.7207    -4.1880 H       
  74 H74            5.8902    -4.1248    -3.3996 H       
  75 H75            3.6986    -3.2370    -4.3179 H       
  76 H76            4.5978    -1.8329    -5.1063 H       
@<TRIPOS>BOND
   1    1    2 ar
   2    1   16 1
   3    1    6 ar
   4    2    3 ar
   5    2    7 1
   6    3    4 ar
   7    3   41 1
   8    4    5 ar
   9    4   42 1
  10    5    6 ar
  11    5   13 1
  12    6   43 1
  13    7    8 1
  14    7    9 1
  15    8   12 1
  16    8   44 1
  17    8   45 1
  18    9   10 1
  19    9   46 1
  20    9   47 1
  21   10   11 1
  22   10   48 1
  23   10   49 1
  24   11   12 1
  25   11   20 am
  26   12   50 1
  27   12   51 1
  28   13   14 2
  29   13   15 am
  30   15   22 1
  31   15   52 1
  32   16   17 am
  33   16   53 1
  34   17   18 1
  35   17   30 2
  36   18   31 2
  37   18   19 1
  38   19   33 2
  39   20   21 2
  40   20   37 1
  41   22   23 1
  42   22   54 1
  43   22   55 1
  44   23   24 1
  45   23   56 1
  46   23   57 1
  47   24   25 1
  48   24   58 1
  49   24   59 1
  50   25   26 am
  51   25   27 1
  52   26   40 2
  53   26   29 1
  54   27   28 1
  55   27   60 1
  56   27   61 1
  57   28   29 1
  58   28   62 1
  59   28   63 1
  60   29   64 1
  61   29   65 1
  62   31   32 1
  63   31   66 1
  64   32   33 1
  65   33   34 1
  66   34   35 1
  67   34   36 1
  68   34   67 1
  69   35   36 1
  70   35   68 1
  71   35   69 1
  72   36   70 1
  73   36   71 1
  74   37   38 1
  75   37   39 1
  76   37   72 1
  77   38   39 1
  78   38   73 1
  79   38   74 1
  80   39   75 1
  81   39   76 1

#	End of record

