#	Name: ASD04591100
#	Creating user name:	WinNT
#	Creation time:	15. 06. 2019 20:52

#	Modifying user name:	WinNT
#	Modification time:	15. 06. 2019 20:52

#	Program:	/corina/corina34_cracker 3.40 0067  02.08.2006

@<TRIPOS>MOLECULE
ASD04591100
  73   78    0    0    0
SMALL
NO_CHARGES


@<TRIPOS>ATOM
   1 N1            -3.1442    -2.2690    -3.8736 N.ar    
   2 C2            -2.0591    -1.5825    -4.2083 C.ar    
   3 N3            -0.9952    -2.1585    -4.7442 N.ar    
   4 C4            -0.9761    -3.4688    -4.9694 C.ar    
   5 C5            -2.1134    -4.2264    -4.6243 C.ar    
   6 C6            -3.2085    -3.5765    -4.0638 C.ar    
   7 N7            -0.0349    -4.3162    -5.4995 N.pl3   
   8 C8            -0.5104    -5.6160    -5.5183 C.ar    
   9 C9            -1.8100    -5.6182    -4.9808 C.ar    
  10 C10            0.0325    -6.8218    -5.9429 C.ar    
  11 N11           -0.6574    -7.9397    -5.8427 N.ar    
  12 C12           -1.8800    -7.9759    -5.3427 C.ar    
  13 C13           -2.4987    -6.8277    -4.8958 C.ar    
  14 N14           -2.0397    -0.2150    -3.9896 N.pl3   
  15 C15           -3.1798     0.4312    -3.5120 C.ar    
  16 N16           -4.3043    -0.2504    -3.3642 N.ar    
  17 C17           -5.4068     0.3195    -2.9159 C.ar    
  18 C18           -5.4240     1.6653    -2.5818 C.ar    
  19 C19           -4.2578     2.4158    -2.7244 C.ar    
  20 C20           -3.1203     1.7830    -3.1914 C.ar    
  21 N21           -6.5978     2.2629    -2.1077 N.3     
  22 C22            1.2865    -3.9028    -5.9784 C.3     
  23 C23           -6.3739     2.9017    -0.8046 C.3     
  24 C24            1.1378    -2.8795    -7.1179 C.3     
  25 C25            1.8264    -1.5845    -6.6400 C.3     
  26 C26            2.8373    -2.0648    -5.5692 C.3     
  27 C27            2.0603    -3.1939    -4.8477 C.3     
  28 C28           -7.6942     1.2883    -2.0399 C.3     
  29 C29           -8.9920     2.0042    -1.6588 C.3     
  30 C30           -8.8107     2.6916    -0.3027 C.3     
  31 C31           -7.6323     3.6657    -0.3866 C.3     
  32 N32          -10.0337     3.4291     0.0413 N.3     
  33 C33          -10.0016     3.8788     1.4394 C.3     
  34 C34          -10.3554     2.7088     2.3597 C.3     
  35 O35           -9.3224     1.7235     2.2962 O.3     
  36 C36          -10.2398     4.5615    -0.8713 C.3     
  37 C37          -11.6853     5.0503    -0.7592 C.3     
  38 H38           -4.0947    -4.1293    -3.7891 H       
  39 H39            1.0288    -6.8432    -6.3592 H       
  40 H40           -2.4025    -8.9192    -5.2833 H       
  41 H41           -3.4980    -6.8643    -4.4879 H       
  42 H42           -1.2332     0.2934    -4.1685 H       
  43 H43           -6.3061    -0.2688    -2.8083 H       
  44 H44           -4.2420     3.4658    -2.4719 H       
  45 H45           -2.1994     2.3338    -3.3136 H       
  46 H46            1.8455    -4.7712    -6.3269 H       
  47 H47           -6.1483     2.1384    -0.0599 H       
  48 H48           -5.5361     3.5949    -0.8791 H       
  49 H49            1.6254    -3.2510    -8.0192 H       
  50 H50            0.0825    -2.6905    -7.3147 H       
  51 H51            2.3473    -1.1018    -7.4669 H       
  52 H52            1.0972    -0.9052    -6.1987 H       
  53 H53            3.7402    -2.4559    -6.0381 H       
  54 H54            3.0786    -1.2584    -4.8766 H       
  55 H55            1.3688    -2.7744    -4.1169 H       
  56 H56            2.7518    -3.8857    -4.3667 H       
  57 H57           -7.8153     0.8097    -3.0117 H       
  58 H58           -7.4624     0.5325    -1.2895 H       
  59 H59           -9.2317     2.7507    -2.4160 H       
  60 H60           -9.8024     1.2782    -1.5933 H       
  61 H61           -8.6093     1.9414     0.4620 H       
  62 H62           -7.4712     4.1268     0.5879 H       
  63 H63           -7.8506     4.4384    -1.1238 H       
  64 H64           -9.0028     4.2422     1.6814 H       
  65 H65          -10.7245     4.6825     1.5793 H       
  66 H66          -10.4518     3.0686     3.3841 H       
  67 H67          -11.2990     2.2671     2.0395 H       
  68 H68           -9.4805     0.9512     2.8562 H       
  69 H69           -9.5607     5.3714    -0.6047 H       
  70 H70          -10.0421     4.2438    -1.8951 H       
  71 H71          -12.3651     4.2109    -0.9056 H       
  72 H72          -11.8475     5.4812     0.2288 H       
  73 H73          -11.8731     5.8071    -1.5209 H       
@<TRIPOS>BOND
   1    1    2 ar
   2    1    6 ar
   3    2    3 ar
   4    2   14 1
   5    3    4 ar
   6    4    5 ar
   7    4    7 1
   8    5    6 ar
   9    5    9 1
  10    6   38 1
  11    7    8 1
  12    7   22 1
  13    8    9 ar
  14    8   10 ar
  15    9   13 ar
  16   10   11 ar
  17   10   39 1
  18   11   12 ar
  19   12   13 ar
  20   12   40 1
  21   13   41 1
  22   14   15 1
  23   14   42 1
  24   15   16 ar
  25   15   20 ar
  26   16   17 ar
  27   17   18 ar
  28   17   43 1
  29   18   19 ar
  30   18   21 1
  31   19   20 ar
  32   19   44 1
  33   20   45 1
  34   21   28 1
  35   21   23 1
  36   22   24 1
  37   22   27 1
  38   22   46 1
  39   23   31 1
  40   23   47 1
  41   23   48 1
  42   24   25 1
  43   24   49 1
  44   24   50 1
  45   25   26 1
  46   25   51 1
  47   25   52 1
  48   26   27 1
  49   26   53 1
  50   26   54 1
  51   27   55 1
  52   27   56 1
  53   28   29 1
  54   28   57 1
  55   28   58 1
  56   29   30 1
  57   29   59 1
  58   29   60 1
  59   30   31 1
  60   30   32 1
  61   30   61 1
  62   31   62 1
  63   31   63 1
  64   32   36 1
  65   32   33 1
  66   33   34 1
  67   33   64 1
  68   33   65 1
  69   34   35 1
  70   34   66 1
  71   34   67 1
  72   35   68 1
  73   36   37 1
  74   36   69 1
  75   36   70 1
  76   37   71 1
  77   37   72 1
  78   37   73 1

#	End of record

