#	Name: ASD01912293
#	Creating user name:	WinNT
#	Creation time:	15. 06. 2019 19:59

#	Modifying user name:	WinNT
#	Modification time:	15. 06. 2019 19:59

#	Program:	/corina/corina34_cracker 3.40 0067  02.08.2006

@<TRIPOS>MOLECULE
ASD01912293
  54   56    0    0    0
SMALL
NO_CHARGES


@<TRIPOS>ATOM
   1 C1            -0.0169     1.3937     0.0097 C.ar    
   2 C2             0.0021    -0.0041     0.0020 C.ar    
   3 C3             1.2200    -0.6586    -0.0132 C.ar    
   4 C4             2.3820     0.1017    -0.0202 C.ar    
   5 C5             2.2917     1.4816    -0.0120 C.ar    
   6 N6             1.1202     2.0835     0.0026 N.ar    
   7 C7             3.5515     2.3086    -0.0196 C.3     
   8 C8            -1.2694     2.0877     0.0194 C.1     
   9 C9            -2.2963     2.6567     0.0274 C.1     
  10 C10           -3.5488     3.3508     0.0371 C.2     
  11 N11           -3.6111     7.1939     1.1690 N.am    
  12 C12           -4.8645     6.4304     1.2214 C.3     
  13 C13           -4.8852     5.4347     0.0547 C.3     
  14 C14           -3.5723     4.6828     0.0444 C.2     
  15 C15           -2.2866     5.4804     0.0422 C.3     
  16 C16           -2.3311     6.4750     1.2091 C.3     
  17 S17           -3.6407     8.8460     1.0592 S.o2    
  18 O18           -2.4110     9.1774     0.4290 O.2     
  19 O19           -4.8845     9.1334     0.4351 O.2     
  20 C20           -3.6466     9.4141     2.7819 C.3     
  21 C21           -3.6737    10.9435     2.8145 C.3     
  22 C22           -3.8044    11.4206     4.2623 C.3     
  23 C23           -3.8316    12.9500     4.2948 C.3     
  24 C24           -2.5352    13.4960     3.6930 C.3     
  25 C25           -2.4045    13.0189     2.2452 C.3     
  26 C26           -2.3774    11.4895     2.2126 C.3     
  27 H27           -0.9211    -0.5645     0.0082 H       
  28 H28            1.2665    -1.7376    -0.0191 H       
  29 H29            3.3483    -0.3807    -0.0317 H       
  30 H30            3.8454     2.5135    -1.0490 H       
  31 H31            3.3719     3.2492     0.5010 H       
  32 H32            4.3485     1.7612     0.4837 H       
  33 H33           -4.4745     2.7944     0.0384 H       
  34 H34           -4.9231     5.8885     2.1653 H       
  35 H35           -5.7111     7.1115     1.1355 H       
  36 H36           -5.7089     4.7329     0.1857 H       
  37 H37           -5.0071     5.9731    -0.8852 H       
  38 H38           -1.4375     4.8082     0.1651 H       
  39 H39           -2.1928     6.0227    -0.8988 H       
  40 H40           -1.5099     7.1856     1.1152 H       
  41 H41           -2.2443     5.9358     2.1524 H       
  42 H42           -4.5286     9.0242     3.2901 H       
  43 H43           -2.7489     9.0559     3.2857 H       
  44 H44           -4.5235    11.3043     2.2349 H       
  45 H45           -4.7280    11.0317     4.6910 H       
  46 H46           -2.9547    11.0599     4.8418 H       
  47 H47           -4.6813    13.3108     3.7153 H       
  48 H48           -3.9247    13.2899     5.3263 H       
  49 H49           -2.5545    14.5856     3.7162 H       
  50 H50           -1.6854    13.1353     4.2725 H       
  51 H51           -3.2542    13.3797     1.6656 H       
  52 H52           -1.4809    13.4079     1.8164 H       
  53 H53           -1.5276    11.1288     2.7922 H       
  54 H54           -2.2842    11.1497     1.1812 H       
@<TRIPOS>BOND
   1    1    2 ar
   2    1    6 ar
   3    1    8 1
   4    2    3 ar
   5    2   27 1
   6    3    4 ar
   7    3   28 1
   8    4    5 ar
   9    4   29 1
  10    5    6 ar
  11    5    7 1
  12    7   30 1
  13    7   31 1
  14    7   32 1
  15    8    9 3
  16    9   10 1
  17   10   14 2
  18   10   33 1
  19   11   12 1
  20   11   16 1
  21   11   17 am
  22   12   13 1
  23   12   34 1
  24   12   35 1
  25   13   14 1
  26   13   36 1
  27   13   37 1
  28   14   15 1
  29   15   16 1
  30   15   38 1
  31   15   39 1
  32   16   40 1
  33   16   41 1
  34   17   18 2
  35   17   19 2
  36   17   20 1
  37   20   21 1
  38   20   42 1
  39   20   43 1
  40   21   22 1
  41   21   26 1
  42   21   44 1
  43   22   23 1
  44   22   45 1
  45   22   46 1
  46   23   24 1
  47   23   47 1
  48   23   48 1
  49   24   25 1
  50   24   49 1
  51   24   50 1
  52   25   26 1
  53   25   51 1
  54   25   52 1
  55   26   53 1
  56   26   54 1

#	End of record

