#	Name: ASD03730144
#	Creating user name:	WinNT
#	Creation time:	15. 06. 2019 20:44

#	Modifying user name:	WinNT
#	Modification time:	15. 06. 2019 20:44

#	Program:	/corina/corina34_cracker 3.40 0067  02.08.2006

@<TRIPOS>MOLECULE
ASD03730144
  45   49    0    0    0
SMALL
NO_CHARGES


@<TRIPOS>ATOM
   1 O1            -0.1900     1.5468    -0.4119 O.3     
   2 C2            -0.2078     0.1109    -0.5163 C.3     
   3 O3             1.0235    -0.1985    -1.1951 O.3     
   4 C4             1.8771     0.8221    -0.8876 C.ar    
   5 C5             1.1303     1.8954    -0.4071 C.ar    
   6 C6             3.2536     0.9233    -0.9796 C.ar    
   7 C7             3.9016     2.0937    -0.5963 C.ar    
   8 C8             3.1443     3.1621    -0.1256 C.ar    
   9 C9             1.7721     3.0620    -0.0268 C.ar    
  10 O10            5.2326     2.3915    -0.5910 O.3     
  11 C11            4.1127     4.2744     0.1754 C.3     
  12 C12            5.3993     3.8211    -0.5280 C.3     
  13 N13            3.5745     6.4263     0.7267 N.am    
  14 C14            3.6318     5.6011    -0.3377 C.2     
  15 C15            4.3187     4.4686     1.6484 C.ar    
  16 C16            4.7444     3.6443     2.6662 C.ar    
  17 C17            4.8330     4.1289     3.9590 C.ar    
  18 C18            4.4930     5.4425     4.2264 C.ar    
  19 C19            4.0652     6.2718     3.2106 C.ar    
  20 C20            3.9732     5.7927     1.9061 C.ar    
  21 O21            3.3505     5.8764    -1.4849 O.2     
  22 C22            3.1449     7.8251     0.6548 C.3     
  23 C23            1.6553     7.9047     0.8687 C.2     
  24 C24            0.8984     8.5099    -0.0128 C.2     
  25 C25            1.5275     9.2410    -1.1707 C.3     
  26 C26           -0.6013     8.4749     0.1310 C.3     
  27 H27           -0.2242    -0.3448     0.4738 H       
  28 H28           -1.0633    -0.2197    -1.1053 H       
  29 H29            3.8292     0.0884    -1.3510 H       
  30 H30            1.1968     3.8958     0.3476 H       
  31 H31            6.2767     4.0828     0.0634 H       
  32 H32            5.4642     4.2478    -1.5289 H       
  33 H33            5.0091     2.6188     2.4550 H       
  34 H34            5.1666     3.4828     4.7575 H       
  35 H35            4.5624     5.8207     5.2356 H       
  36 H36            3.8006     7.2961     3.4276 H       
  37 H37            3.6541     8.4017     1.4270 H       
  38 H38            3.3934     8.2316    -0.3255 H       
  39 H39            1.2117     7.4628     1.7486 H       
  40 H40            1.7326     8.5367    -1.9769 H       
  41 H41            0.8450    10.0126    -1.5271 H       
  42 H42            2.4598     9.7026    -0.8456 H       
  43 H43           -0.8861     8.9303     1.0795 H       
  44 H44           -1.0580     9.0284    -0.6894 H       
  45 H45           -0.9446     7.4406     0.1070 H       
@<TRIPOS>BOND
   1    1    2 1
   2    1    5 1
   3    2    3 1
   4    2   27 1
   5    2   28 1
   6    3    4 1
   7    4    5 ar
   8    4    6 ar
   9    5    9 ar
  10    6    7 ar
  11    6   29 1
  12    7    8 ar
  13    7   10 1
  14    8    9 ar
  15    8   11 1
  16    9   30 1
  17   10   12 1
  18   11   12 1
  19   11   14 1
  20   11   15 1
  21   12   31 1
  22   12   32 1
  23   13   14 am
  24   13   20 1
  25   13   22 1
  26   14   21 2
  27   15   16 ar
  28   15   20 ar
  29   16   17 ar
  30   16   33 1
  31   17   18 ar
  32   17   34 1
  33   18   19 ar
  34   18   35 1
  35   19   20 ar
  36   19   36 1
  37   22   23 1
  38   22   37 1
  39   22   38 1
  40   23   24 2
  41   23   39 1
  42   24   25 1
  43   24   26 1
  44   25   40 1
  45   25   41 1
  46   25   42 1
  47   26   43 1
  48   26   44 1
  49   26   45 1

#	End of record

