#	Name: ASD04230047
#	Creating user name:	WinNT
#	Creation time:	15. 06. 2019 20:48

#	Modifying user name:	WinNT
#	Modification time:	15. 06. 2019 20:48

#	Program:	/corina/corina34_cracker 3.40 0067  02.08.2006

@<TRIPOS>MOLECULE
ASD04230047
  28   30    0    0    0
SMALL
NO_CHARGES


@<TRIPOS>ATOM
   1 N1            -0.0169     1.3927     0.0097 N.pl3   
   2 C2             0.0021    -0.0041     0.0020 C.ar    
   3 C3             1.2125    -0.6816    -0.0132 C.ar    
   4 C4             1.2262    -2.0735    -0.0203 C.ar    
   5 C5             0.0239    -2.7788    -0.0121 C.ar    
   6 C6            -1.1766    -2.0975     0.0025 C.ar    
   7 C7            -1.1916    -0.7155     0.0154 C.ar    
   8 N8             5.9791    -5.0610    -0.0851 N.pl3   
   9 C9             5.4678    -6.3302    -0.0859 C.2     
  10 C10            4.1265    -6.2836    -0.0710 C.2     
  11 C11            3.7477    -4.8682    -0.0599 C.ar    
  12 C12            2.5277    -4.1923    -0.0441 C.ar    
  13 C13            2.5175    -2.8046    -0.0370 C.ar    
  14 C14            3.7223    -2.0938    -0.0461 C.ar    
  15 C15            4.9186    -2.7506    -0.0620 C.ar    
  16 C16            4.9535    -4.1423    -0.0694 C.ar    
  17 H17            0.8165     1.8891     0.0044 H       
  18 H18           -0.8634     1.8662     0.0163 H       
  19 H19            2.1415    -0.1307    -0.0198 H       
  20 H20            0.0316    -3.8588    -0.0176 H       
  21 H21           -2.1069    -2.6461     0.0081 H       
  22 H22           -2.1334    -0.1872     0.0314 H       
  23 H23            6.9238    -4.8411    -0.0907 H       
  24 H24            6.0565    -7.2355    -0.0974 H       
  25 H25            3.4541    -7.1288    -0.0685 H       
  26 H26            1.5993    -4.7440    -0.0381 H       
  27 H27            3.7056    -1.0139    -0.0409 H       
  28 H28            5.8410    -2.1889    -0.0693 H       
@<TRIPOS>BOND
   1    1    2 1
   2    1   17 1
   3    1   18 1
   4    2    3 ar
   5    2    7 ar
   6    3    4 ar
   7    3   19 1
   8    4    5 ar
   9    4   13 1
  10    5    6 ar
  11    5   20 1
  12    6    7 ar
  13    6   21 1
  14    7   22 1
  15    8    9 1
  16    8   16 1
  17    8   23 1
  18    9   10 2
  19    9   24 1
  20   10   11 1
  21   10   25 1
  22   11   12 ar
  23   11   16 ar
  24   12   13 ar
  25   12   26 1
  26   13   14 ar
  27   14   15 ar
  28   14   27 1
  29   15   16 ar
  30   15   28 1

#	End of record

