#	Name: ASD04230156
#	Creating user name:	WinNT
#	Creation time:	15. 06. 2019 20:48

#	Modifying user name:	WinNT
#	Modification time:	15. 06. 2019 20:48

#	Program:	/corina/corina34_cracker 3.40 0067  02.08.2006

@<TRIPOS>MOLECULE
ASD04230156
  55   58    0    0    0
SMALL
NO_CHARGES


@<TRIPOS>ATOM
   1 C1             1.5741     4.3775     2.5295 C.ar    
   2 C2             2.6042     5.0310     3.1904 C.ar    
   3 C3             3.8701     4.5194     3.1822 C.ar    
   4 C4             4.1389     3.3284     2.4924 C.ar    
   5 C5             3.0919     2.6446     1.8482 C.ar    
   6 C6             1.8091     3.1884     1.8621 C.ar    
   7 C7             5.4575     2.8058     2.4435 C.2     
   8 C8             5.7037     1.7414     1.5864 C.2     
   9 C9             4.5757     1.2585     0.7691 C.2     
  10 O10            3.3239     1.4572     1.2389 O.3     
  11 C11            7.0361     1.1212     1.4972 C.2     
  12 N12            7.2440     0.0892     0.6556 N.am    
  13 O13            7.9491     1.5402     2.1830 O.2     
  14 C14            8.5331    -0.4263     0.4863 C.ar    
  15 C15            8.7144    -1.7869     0.2688 C.ar    
  16 C16            9.9867    -2.3015     0.1013 C.ar    
  17 C17           11.0849    -1.4676     0.1485 C.ar    
  18 C18           10.9135    -0.0989     0.3660 C.ar    
  19 C19            9.6298     0.4210     0.5297 C.ar    
  20 C20           12.0882     0.7968     0.4171 C.2     
  21 O21            4.7655     0.6991    -0.2947 O.2     
  22 O22            0.7915     2.5522     1.2229 O.3     
  23 C23           12.1763     2.0354    -0.1386 C.2     
  24 C24           13.4597     2.5363     0.1462 C.2     
  25 C25           14.1184     1.6022     0.8614 C.2     
  26 N26           13.2870     0.5282     1.0410 N.am    
  27 C27           13.5927    -0.6024     1.7078 C.2     
  28 O28           14.7799    -0.7160     2.3309 O.3     
  29 O29           12.7967    -1.5186     1.7463 O.2     
  30 C30           15.0413    -1.9618     3.0293 C.3     
  31 C31           14.9852    -3.1246     2.0365 C.3     
  32 C32           16.4292    -1.9054     3.6708 C.3     
  33 C33           13.9849    -2.1683     4.1167 C.3     
  34 H34            0.5795     4.7982     2.5397 H       
  35 H35            2.4029     5.9529     3.7159 H       
  36 H36            4.6636     5.0316     3.7061 H       
  37 H37            6.2449     3.2232     3.0535 H       
  38 H38            6.4997    -0.2960     0.1673 H       
  39 H39            7.8586    -2.4446     0.2308 H       
  40 H40           10.1213    -3.3598    -0.0666 H       
  41 H41           12.0772    -1.8735     0.0176 H       
  42 H42            9.4909     1.4787     0.6979 H       
  43 H43            0.3145     1.9186     1.7762 H       
  44 H44           11.4025     2.5415    -0.6968 H       
  45 H45           13.8484     3.4979    -0.1548 H       
  46 H46           15.1289     1.6876     1.2329 H       
  47 H47           15.7378    -2.9776     1.2618 H       
  48 H48           15.1814    -4.0599     2.5608 H       
  49 H49           13.9964    -3.1648     1.5795 H       
  50 H50           16.4691    -1.0771     4.3781 H       
  51 H51           16.6254    -2.8407     4.1951 H       
  52 H52           17.1818    -1.7584     2.8961 H       
  53 H53           12.9961    -2.2084     3.6597 H       
  54 H54           14.1811    -3.1035     4.6410 H       
  55 H55           14.0249    -1.3399     4.8240 H       
@<TRIPOS>BOND
   1    1    2 ar
   2    1    6 ar
   3    1   34 1
   4    2    3 ar
   5    2   35 1
   6    3    4 ar
   7    3   36 1
   8    4    5 ar
   9    4    7 1
  10    5    6 ar
  11    5   10 1
  12    6   22 1
  13    7    8 2
  14    7   37 1
  15    8    9 1
  16    8   11 1
  17    9   10 1
  18    9   21 2
  19   11   12 am
  20   11   13 2
  21   12   14 1
  22   12   38 1
  23   14   15 ar
  24   14   19 ar
  25   15   16 ar
  26   15   39 1
  27   16   17 ar
  28   16   40 1
  29   17   18 ar
  30   17   41 1
  31   18   19 ar
  32   18   20 1
  33   19   42 1
  34   20   23 2
  35   20   26 1
  36   22   43 1
  37   23   24 1
  38   23   44 1
  39   24   25 2
  40   24   45 1
  41   25   26 1
  42   25   46 1
  43   26   27 am
  44   27   28 1
  45   27   29 2
  46   28   30 1
  47   30   31 1
  48   30   32 1
  49   30   33 1
  50   31   47 1
  51   31   48 1
  52   31   49 1
  53   32   50 1
  54   32   51 1
  55   32   52 1
  56   33   53 1
  57   33   54 1
  58   33   55 1

#	End of record

