#	Name: ASD01917354
#	Creating user name:	WinNT
#	Creation time:	15. 06. 2019 20:09

#	Modifying user name:	WinNT
#	Modification time:	15. 06. 2019 20:09

#	Program:	/corina/corina34_cracker 3.40 0067  02.08.2006

@<TRIPOS>MOLECULE
ASD01917354
  50   53    0    0    0
SMALL
NO_CHARGES


@<TRIPOS>ATOM
   1 S1            -0.0276     1.7665     0.0019 S.3     
   2 C2            -0.0004     0.0058    -0.0002 C.2     
   3 N3             1.2410    -0.3983    -0.0116 N.2     
   4 C4             2.1479     0.5429    -0.0187 C.2     
   5 C5             1.6826     1.8020    -0.0133 C.2     
   6 C6            -1.1852    -0.8687     0.0099 C.2     
   7 O7            -1.0490    -2.0772     0.0079 O.2     
   8 N8            -2.4204    -0.3297     0.0214 N.am    
   9 C9            -3.5991    -1.1997     0.0314 C.3     
  10 C10           -3.6538    -2.1330    -1.1908 C.3     
  11 C11           -4.7734    -3.1557    -0.9874 C.3     
  12 C12           -6.1037    -2.4446    -0.7321 C.3     
  13 C13           -5.9435    -1.4979     0.4704 C.3     
  14 C14           -5.1943    -2.2768     1.5761 C.3     
  15 C15           -3.6733    -2.0873     1.2953 C.3     
  16 C16           -4.9305    -0.4030     0.0435 C.3     
  17 C17           -7.2601    -0.9389     0.9449 C.2     
  18 N18           -8.2366    -1.7716     1.3567 N.am    
  19 O19           -7.4409     0.2602     0.9561 O.2     
  20 C20          -10.6500     0.5452     2.6109 C.ar    
  21 N21           -9.5395     0.0515     2.1017 N.ar    
  22 C22           -9.4100    -1.2547     1.8946 C.ar    
  23 C23          -10.4703    -2.0994     2.2251 C.ar    
  24 C24          -11.6154    -1.5375     2.7564 C.ar    
  25 N25          -11.6692    -0.2253     2.9335 N.ar    
  26 C26          -10.7552     2.0315     2.8364 C.3     
  27 C27            3.6228     0.2341    -0.0316 C.3     
  28 H28            2.2907     2.6946    -0.0185 H       
  29 H29           -2.5290     0.6342     0.0230 H       
  30 H30           -3.8534    -1.5473    -2.0882 H       
  31 H31           -2.7010    -2.6515    -1.2966 H       
  32 H32           -4.8614    -3.7762    -1.8793 H       
  33 H33           -4.5329    -3.7886    -0.1332 H       
  34 H34           -6.3849    -1.8693    -1.6142 H       
  35 H35           -6.8759    -3.1826    -0.5150 H       
  36 H36           -5.4464    -1.8718     2.5561 H       
  37 H37           -5.4525    -3.3348     1.5296 H       
  38 H38           -3.2035    -3.0520     1.1036 H       
  39 H39           -3.1817    -1.5902     2.1315 H       
  40 H40           -4.8916     0.4123     0.7658 H       
  41 H41           -5.1718    -0.0300    -0.9519 H       
  42 H42           -8.1208    -2.7314     1.2778 H       
  43 H43          -10.3979    -3.1657     2.0692 H       
  44 H44          -12.4563    -2.1602     3.0241 H       
  45 H45          -11.1628     2.5064     1.9440 H       
  46 H46          -11.4132     2.2249     3.6836 H       
  47 H47           -9.7656     2.4383     3.0446 H       
  48 H48            3.9697     0.1608    -1.0624 H       
  49 H49            4.1652     1.0301     0.4785 H       
  50 H50            3.8004    -0.7121     0.4796 H       
@<TRIPOS>BOND
   1    1    2 1
   2    1    5 1
   3    2    3 2
   4    2    6 1
   5    3    4 1
   6    4    5 2
   7    4   27 1
   8    5   28 1
   9    6    7 2
  10    6    8 am
  11    8    9 1
  12    8   29 1
  13    9   10 1
  14    9   15 1
  15    9   16 1
  16   10   11 1
  17   10   30 1
  18   10   31 1
  19   11   12 1
  20   11   32 1
  21   11   33 1
  22   12   13 1
  23   12   34 1
  24   12   35 1
  25   13   14 1
  26   13   16 1
  27   13   17 1
  28   14   15 1
  29   14   36 1
  30   14   37 1
  31   15   38 1
  32   15   39 1
  33   16   40 1
  34   16   41 1
  35   17   18 am
  36   17   19 2
  37   18   22 1
  38   18   42 1
  39   20   21 ar
  40   20   25 ar
  41   20   26 1
  42   21   22 ar
  43   22   23 ar
  44   23   24 ar
  45   23   43 1
  46   24   25 ar
  47   24   44 1
  48   26   45 1
  49   26   46 1
  50   26   47 1
  51   27   48 1
  52   27   49 1
  53   27   50 1

#	End of record

