#	Name: ASD07030051
#	Creating user name:	WinNT
#	Creation time:	15. 06. 2019 21:08

#	Modifying user name:	WinNT
#	Modification time:	15. 06. 2019 21:08

#	Program:	/corina/corina34_cracker 3.40 0067  02.08.2006

@<TRIPOS>MOLECULE
ASD07030051
  45   45    0    0    0
SMALL
NO_CHARGES


@<TRIPOS>ATOM
   1 N1            -0.0179     1.4702     0.0101 N.3     
   2 C2             0.0021    -0.0041     0.0020 C.3     
   3 C3             1.4820    -0.4413     0.0110 C.3     
   4 C4             2.2089     0.7978     0.5967 C.3     
   5 C5             1.3770     1.9600    -0.0006 C.3     
   6 N6             1.6723    -1.6126     0.8769 N.3     
   7 C7            -0.7682     1.9929    -1.1396 C.3     
   8 C8            -0.9813     3.4982    -0.9679 C.3     
   9 N9            -1.7316     4.0208    -2.1176 N.3     
  10 C10           -1.9554     5.4668    -1.9869 C.3     
  11 C11           -2.1713     6.2673    -3.2727 C.3     
  12 C12           -3.3474     6.0001    -2.3313 C.3     
  13 C13           -1.6222     7.6700    -3.3196 C.ar    
  14 C14           -0.6839     8.0134    -4.2748 C.ar    
  15 C15           -0.1802     9.3000    -4.3177 C.ar    
  16 C16           -0.6153    10.2433    -3.4057 C.ar    
  17 C17           -1.5543     9.9002    -2.4511 C.ar    
  18 C18           -2.0612     8.6147    -2.4109 C.ar    
  19 H19           -0.5030    -0.3866     0.8889 H       
  20 H20           -0.4892    -0.3766    -0.8968 H       
  21 H21            1.8287    -0.6487    -1.0014 H       
  22 H22            2.1590     0.8012     1.6856 H       
  23 H23            3.2429     0.8417     0.2547 H       
  24 H24            1.6974     2.1707    -1.0209 H       
  25 H25            1.4709     2.8516     0.6194 H       
  26 H26            2.6388    -1.9023     0.8860 H       
  27 H27            1.3411    -1.4285     1.8121 H       
  28 H28           -0.2061     1.8076    -2.0549 H       
  29 H29           -1.7352     1.4935    -1.1997 H       
  30 H30           -1.5434     3.6835    -0.0526 H       
  31 H31           -0.0143     3.9975    -0.9077 H       
  32 H32           -1.2623     3.8045    -2.9842 H       
  33 H33           -1.4163     5.9546    -1.1748 H       
  34 H34           -2.1472     5.7211    -4.2157 H       
  35 H35           -4.0972     5.2781    -2.6550 H       
  36 H36           -3.7241     6.8389    -1.7459 H       
  37 H37           -0.3440     7.2764    -4.9873 H       
  38 H38            0.5534     9.5681    -5.0636 H       
  39 H39           -0.2213    11.2483    -3.4388 H       
  40 H40           -1.8939    10.6371    -1.7383 H       
  41 H41           -2.7975     8.3476    -1.6674 H       
  42 Cl42           8.2429    16.2483     6.8121 Cl      
  43 H43            8.2429    17.6183     6.8121 H       
  44 Cl44          13.2429    22.6183    11.8121 Cl      
  45 H45           13.2429    23.9883    11.8121 H       
@<TRIPOS>BOND
   1    1    2 1
   2    1    5 1
   3    1    7 1
   4    2    3 1
   5    2   19 1
   6    2   20 1
   7    3    4 1
   8    3    6 1
   9    3   21 1
  10    4    5 1
  11    4   22 1
  12    4   23 1
  13    5   24 1
  14    5   25 1
  15    6   26 1
  16    6   27 1
  17    7    8 1
  18    7   28 1
  19    7   29 1
  20    8    9 1
  21    8   30 1
  22    8   31 1
  23    9   10 1
  24    9   32 1
  25   10   11 1
  26   10   12 1
  27   10   33 1
  28   11   12 1
  29   11   13 1
  30   11   34 1
  31   12   35 1
  32   12   36 1
  33   13   14 ar
  34   13   18 ar
  35   14   15 ar
  36   14   37 1
  37   15   16 ar
  38   15   38 1
  39   16   17 ar
  40   16   39 1
  41   17   18 ar
  42   17   40 1
  43   18   41 1
  44   42   43 1
  45   44   45 1

#	End of record

