#	Name: ASD03090155
#	Creating user name:	WinNT
#	Creation time:	15. 06. 2019 20:28

#	Modifying user name:	WinNT
#	Modification time:	15. 06. 2019 20:28

#	Program:	/corina/corina34_cracker 3.40 0067  02.08.2006

@<TRIPOS>MOLECULE
ASD03090155
  37   39    0    0    0
SMALL
NO_CHARGES


@<TRIPOS>ATOM
   1 C1            -0.1355     1.2326    -0.0363 C.ar    
   2 C2            -0.0569    -0.1363     0.1484 C.ar    
   3 C3             1.1659    -0.7733     0.0964 C.ar    
   4 C4             2.3245    -0.0341    -0.1431 C.ar    
   5 C5             2.2386     1.3460    -0.3286 C.ar    
   6 C6             1.0098     1.9712    -0.2742 C.ar    
   7 C7             3.6391    -0.7108    -0.1997 C.2     
   8 N8             5.7309    -3.5088    -0.5910 N.pl3   
   9 C9             4.9223    -4.6441    -0.6994 C.ar    
  10 C10            3.5616    -4.5565    -0.4382 C.ar    
  11 C11            2.7647    -5.6812    -0.5463 C.ar    
  12 C12            3.3221    -6.8931    -0.9140 C.ar    
  13 C13            4.6774    -6.9837    -1.1744 C.ar    
  14 C14            5.4781    -5.8621    -1.0747 C.ar    
  15 N15            3.8412    -1.9955    -0.4146 N.2     
  16 C16            5.1501    -2.2537    -0.3989 C.2     
  17 N17            5.8041    -1.1376    -0.1737 N.2     
  18 N18            4.8451    -0.1198    -0.0460 N.pl3   
  19 C19            5.1005     1.2996     0.2116 C.3     
  20 C20            5.3655     2.0187    -1.1127 C.3     
  21 O21            5.6146     3.4032    -0.8614 O.3     
  22 Cl22           7.1790    -5.9769    -1.4024 Cl      
  23 Cl23           1.0631    -5.5729    -0.2199 Cl      
  24 H24           -1.0955     1.7260     0.0009 H       
  25 H25           -0.9546    -0.7073     0.3341 H       
  26 H26            1.2260    -1.8419     0.2411 H       
  27 H27            3.1320     1.9237    -0.5140 H       
  28 H28            0.9420     3.0395    -0.4179 H       
  29 H29            6.6955    -3.5930    -0.6493 H       
  30 H30            3.1261    -3.6110    -0.1505 H       
  31 H31            2.6976    -7.7703    -0.9974 H       
  32 H32            5.1095    -7.9312    -1.4604 H       
  33 H33            4.2315     1.7427     0.6981 H       
  34 H34            5.9707     1.4003     0.8602 H       
  35 H35            6.2344     1.5756    -1.5992 H       
  36 H36            4.4952     1.9180    -1.7613 H       
  37 H37            5.7910     3.9220    -1.6581 H       
@<TRIPOS>BOND
   1    1    2 ar
   2    1    6 ar
   3    1   24 1
   4    2    3 ar
   5    2   25 1
   6    3    4 ar
   7    3   26 1
   8    4    5 ar
   9    4    7 1
  10    5    6 ar
  11    5   27 1
  12    6   28 1
  13    7   15 2
  14    7   18 1
  15    8    9 1
  16    8   16 1
  17    8   29 1
  18    9   10 ar
  19    9   14 ar
  20   10   11 ar
  21   10   30 1
  22   11   12 ar
  23   11   23 1
  24   12   13 ar
  25   12   31 1
  26   13   14 ar
  27   13   32 1
  28   14   22 1
  29   15   16 1
  30   16   17 2
  31   17   18 1
  32   18   19 1
  33   19   20 1
  34   19   33 1
  35   19   34 1
  36   20   21 1
  37   20   35 1
  38   20   36 1
  39   21   37 1

#	End of record

