#	Name: ASD05720281
#	Creating user name:	WinNT
#	Creation time:	15. 06. 2019 21:02

#	Modifying user name:	WinNT
#	Modification time:	15. 06. 2019 21:02

#	Program:	/corina/corina34_cracker 3.40 0067  02.08.2006

@<TRIPOS>MOLECULE
ASD05720281
  73   77    0    0    0
SMALL
NO_CHARGES


@<TRIPOS>ATOM
   1 C1             0.5119     1.0237     1.1164 C.2     
   2 N2             0.4122    -0.2391     0.6808 N.am    
   3 C3             1.6580    -0.6134    -0.0049 C.3     
   4 C4             2.5297     0.6535     0.0955 C.3     
   5 N5             1.6824     1.6071     0.8270 N.am    
   6 O6            -0.3811     1.5906     1.7157 O.2     
   7 C7             1.3817    -0.9606    -1.4691 C.3     
   8 C8             0.5224    -2.2245    -1.5401 C.3     
   9 C9             0.6397     0.1988    -2.1369 C.3     
  10 C10            2.0587     2.9775     1.1828 C.3     
  11 N11            3.7080     4.4201     4.2789 N.3     
  12 C12            3.1288     4.4125     2.9277 C.3     
  13 C13            2.7352     2.9807     2.5551 C.3     
  14 O14            1.8280     2.4705     3.5359 O.3     
  15 C15            2.3599     2.4629     4.8634 C.3     
  16 C16            2.7497     3.8894     5.2594 C.3     
  17 C17            4.1520     5.7693     4.6538 C.3     
  18 C18            4.5147     5.7923     6.1400 C.3     
  19 C19           -1.6778    -3.1433     0.6617 C.2     
  20 N20           -0.6243    -2.3357     0.5053 N.2     
  21 C21           -0.6921    -1.0636     0.8499 C.2     
  22 C22           -1.8851    -0.5415     1.3900 C.2     
  23 C23           -2.9530    -1.3558     1.5497 C.2     
  24 N24           -2.8523    -2.6692     1.1834 N.pl3   
  25 N25           -3.7636    -3.7303     1.2267 N.2     
  26 C26           -3.1914    -4.8116     0.7573 C.2     
  27 C27           -1.8788    -4.5014     0.3811 C.2     
  28 C28           -0.8882    -5.4341    -0.2016 C.ar    
  29 C29           -0.6489    -6.6680     0.4062 C.ar    
  30 C30            0.2725    -7.5353    -0.1368 C.ar    
  31 C31            0.9670    -7.1812    -1.2934 C.ar    
  32 C32            0.7285    -5.9487    -1.9011 C.ar    
  33 C33           -0.1968    -5.0827    -1.3625 C.ar    
  34 N34            3.4781    -9.0331    -3.1490 N.pl3   
  35 N35            2.6749    -7.8969    -2.9593 N.2     
  36 C36            1.9599    -8.1156    -1.8770 C.2     
  37 N37            2.2776    -9.3227    -1.3893 N.2     
  38 C38            3.1866    -9.8797    -2.1451 C.2     
  39 H39            2.1383    -1.4495     0.5036 H       
  40 H40            3.4427     0.4464     0.6537 H       
  41 H41            2.7656     1.0352    -0.8979 H       
  42 H42            2.3257    -1.1336    -1.9859 H       
  43 H43            0.5093    -2.5979    -2.5641 H       
  44 H44            0.9403    -2.9855    -0.8812 H       
  45 H45           -0.4947    -1.9904    -1.2258 H       
  46 H46            1.2519     1.0992    -2.0863 H       
  47 H47            0.4428    -0.0485    -3.1801 H       
  48 H48           -0.3043     0.3718    -1.6201 H       
  49 H49            2.7493     3.3700     0.4364 H       
  50 H50            1.1662     3.6023     1.2162 H       
  51 H51            2.2450     5.0501     2.9070 H       
  52 H52            3.8640     4.7852     2.2145 H       
  53 H53            3.6269     2.3546     2.5235 H       
  54 H54            1.6065     2.0861     5.5552 H       
  55 H55            3.2407     1.8217     4.8990 H       
  56 H56            3.2082     3.8803     6.2483 H       
  57 H57            1.8598     4.5186     5.2760 H       
  58 H58            5.0261     6.0416     4.0622 H       
  59 H59            3.3490     6.4817     4.4646 H       
  60 H60            3.6406     5.5200     6.7315 H       
  61 H61            5.3177     5.0799     6.3291 H       
  62 H62            4.8441     6.7934     6.4181 H       
  63 H63           -1.9455     0.4988     1.6739 H       
  64 H64           -3.8748    -0.9730     1.9622 H       
  65 H65           -3.6570    -5.7823     0.6714 H       
  66 H66           -1.1861    -6.9420     1.3021 H       
  67 H67            0.4577    -8.4899     0.3333 H       
  68 H68            1.2666    -5.6751    -2.7966 H       
  69 H69           -0.3844    -4.1301    -1.8354 H       
  70 H70            4.1151    -9.1803    -3.8656 H       
  71 H71            3.6281   -10.8531    -1.9903 H       
  72 Cl72          10.3177    11.7934    11.7315 Cl      
  73 H73           10.3177    13.1634    11.7315 H       
@<TRIPOS>BOND
   1    1    2 am
   2    1    5 am
   3    1    6 2
   4    2    3 1
   5    2   21 1
   6    3    4 1
   7    3    7 1
   8    3   39 1
   9    4    5 1
  10    4   40 1
  11    4   41 1
  12    5   10 1
  13    7    8 1
  14    7    9 1
  15    7   42 1
  16    8   43 1
  17    8   44 1
  18    8   45 1
  19    9   46 1
  20    9   47 1
  21    9   48 1
  22   10   13 1
  23   10   49 1
  24   10   50 1
  25   11   12 1
  26   11   16 1
  27   11   17 1
  28   12   13 1
  29   12   51 1
  30   12   52 1
  31   13   14 1
  32   13   53 1
  33   14   15 1
  34   15   16 1
  35   15   54 1
  36   15   55 1
  37   16   56 1
  38   16   57 1
  39   17   18 1
  40   17   58 1
  41   17   59 1
  42   18   60 1
  43   18   61 1
  44   18   62 1
  45   19   20 1
  46   19   24 1
  47   19   27 2
  48   20   21 2
  49   21   22 1
  50   22   23 2
  51   22   63 1
  52   23   24 1
  53   23   64 1
  54   24   25 1
  55   25   26 2
  56   26   27 1
  57   26   65 1
  58   27   28 1
  59   28   29 ar
  60   28   33 ar
  61   29   30 ar
  62   29   66 1
  63   30   31 ar
  64   30   67 1
  65   31   32 ar
  66   31   36 1
  67   32   33 ar
  68   32   68 1
  69   33   69 1
  70   34   35 1
  71   34   38 1
  72   34   70 1
  73   35   36 2
  74   36   37 1
  75   37   38 2
  76   38   71 1
  77   72   73 1

#	End of record

