#	Name: ASD01911908
#	Creating user name:	WinNT
#	Creation time:	15. 06. 2019 19:58

#	Modifying user name:	WinNT
#	Modification time:	15. 06. 2019 19:58

#	Program:	/corina/corina34_cracker 3.40 0067  02.08.2006

@<TRIPOS>MOLECULE
ASD01911908
  33   35    0    0    0
SMALL
NO_CHARGES


@<TRIPOS>ATOM
   1 C1            -1.0508    -0.5009    -2.0862 C.ar    
   2 C2            -1.0553     0.0490    -0.8083 C.ar    
   3 C3            -1.0156     1.4342    -0.6867 C.ar    
   4 N4            -0.9753     2.1740    -1.7826 N.ar    
   5 C5            -0.9724     1.6152    -2.9761 C.ar    
   6 N6            -1.0092     0.3071    -3.1327 N.ar    
   7 O7            -1.0978    -0.7466     0.2928 O.3     
   8 C8            -1.1389    -2.0919     0.1066 C.ar    
   9 C9             0.0165    -2.7810    -0.2350 C.ar    
  10 C10           -0.0241    -4.1512    -0.4254 C.ar    
  11 C11           -1.2165    -4.8373    -0.2758 C.ar    
  12 C12           -2.3748    -4.1511     0.0659 C.ar    
  13 C13           -2.3335    -2.7773     0.2632 C.ar    
  14 N14           -3.5793    -4.8436     0.2167 N.am    
  15 C15           -4.7448    -4.2452    -0.0999 C.2     
  16 C16           -6.0197    -4.9351     0.1563 C.2     
  17 O17           -4.7431    -3.1354    -0.5972 O.2     
  18 C18           -7.4137    -4.4129    -0.1357 C.3     
  19 F19            1.1018    -4.8197    -0.7583 F       
  20 C20           -8.3013    -5.5499     0.3370 C.2     
  21 C21           -7.4598    -6.4831     0.7902 C.2     
  22 N22           -6.1785    -6.1180     0.6736 N.2     
  23 H23           -1.0763    -1.5721    -2.2218 H       
  24 H24           -1.0180     1.8989     0.2883 H       
  25 H25           -0.9393     2.2474    -3.8511 H       
  26 H26            0.9481    -2.2474    -0.3526 H       
  27 H27           -1.2466    -5.9065    -0.4251 H       
  28 H28           -3.2330    -2.2420     0.5293 H       
  29 H29           -3.5766    -5.7548     0.5491 H       
  30 H30           -7.6132    -3.5047     0.4331 H       
  31 H31           -7.5452    -4.2382    -1.2035 H       
  32 H32           -9.3801    -5.5945     0.3128 H       
  33 H33           -7.7787    -7.4296     1.2012 H       
@<TRIPOS>BOND
   1    1    2 ar
   2    1    6 ar
   3    1   23 1
   4    2    3 ar
   5    2    7 1
   6    3    4 ar
   7    3   24 1
   8    4    5 ar
   9    5    6 ar
  10    5   25 1
  11    7    8 1
  12    8    9 ar
  13    8   13 ar
  14    9   10 ar
  15    9   26 1
  16   10   11 ar
  17   10   19 1
  18   11   12 ar
  19   11   27 1
  20   12   13 ar
  21   12   14 1
  22   13   28 1
  23   14   15 am
  24   14   29 1
  25   15   16 1
  26   15   17 2
  27   16   18 1
  28   16   22 2
  29   18   20 1
  30   18   30 1
  31   18   31 1
  32   20   21 2
  33   20   32 1
  34   21   22 1
  35   21   33 1

#	End of record

