#	Name: ASD03520002
#	Creating user name:	WinNT
#	Creation time:	15. 06. 2019 20:42

#	Modifying user name:	WinNT
#	Modification time:	15. 06. 2019 20:42

#	Program:	/corina/corina34_cracker 3.40 0067  02.08.2006

@<TRIPOS>MOLECULE
ASD03520002
  62   65    0    0    0
SMALL
NO_CHARGES


@<TRIPOS>ATOM
   1 C1            -0.3540     2.5341     0.2176 C.3     
   2 C2            -0.3538     1.0456     0.5526 C.3     
   3 C3             0.3293     0.2168    -0.5468 C.3     
   4 C4            -0.3951     0.5040    -1.8492 C.3     
   5 C5            -0.1727     2.0052    -2.1758 C.3     
   6 C6            -0.9703     2.8056    -1.1639 C.3     
   7 C7             0.3857     0.8245     1.8754 C.3     
   8 C8             0.4581    -0.6449     2.1676 C.2     
   9 C9             0.9913    -1.5625     1.0834 C.3     
  10 C10            0.2216    -1.2713    -0.2088 C.3     
  11 C11           -0.2379     1.6256     2.9667 C.2     
  12 C12           -0.6386     1.1190     4.1220 C.2     
  13 C13           -0.4866    -0.3223     4.3833 C.2     
  14 C14            0.0678    -1.1734     3.3193 C.2     
  15 C15            0.1819    -0.1740    -3.0969 C.3     
  16 C16           -0.3362     0.7252    -4.2523 C.3     
  17 C17           -0.6153     2.1165    -3.6312 C.3     
  18 C18            0.1874     3.1758    -4.3415 C.2     
  19 O19           -2.0099     2.4198    -3.7027 O.3     
  20 O20            1.1745     2.8684    -4.9655 O.2     
  21 C21           -0.2416     4.6189    -4.2730 C.3     
  22 O22            0.6729     5.4237    -5.0199 O.3     
  23 C23           -1.6252     0.1416    -4.8343 C.3     
  24 C24            1.3133     2.3483    -2.0533 C.3     
  25 O25            0.9917     3.0149     0.2303 O.3     
  26 C26            1.8165     1.3376     1.7008 C.3     
  27 F27           -1.6745     0.6032     0.6842 F       
  28 O28           -0.8119    -0.7982     5.4550 O.2     
  29 P29            0.5208     7.0200    -5.1636 P.3     
  30 O30           -0.8234     7.3419    -5.6926 O.2     
  31 O31            0.7088     7.7091    -3.7207 O.3     
  32 Na32           2.4797     7.3611    -2.8821 Du      
  33 O33            1.6430     7.5772    -6.1747 O.3     
  34 Na34           1.5770     9.5467    -6.4515 Du      
  35 H35           -0.9293     3.0686     0.9736 H       
  36 H36            1.3747     0.5127    -0.6345 H       
  37 H37           -1.4590     0.2904    -1.7459 H       
  38 H38           -2.0120     2.4852    -1.1751 H       
  39 H39           -0.9053     3.8684    -1.3969 H       
  40 H40            2.0535    -1.3722     0.9298 H       
  41 H41            0.8415    -2.6021     1.3746 H       
  42 H42           -0.8267    -1.5380    -0.0747 H       
  43 H43            0.6439    -1.8599    -1.0233 H       
  44 H44           -0.3708     2.6851     2.8049 H       
  45 H45           -1.0758     1.7616     4.8718 H       
  46 H46            0.1577    -2.2380     3.4776 H       
  47 H47            1.2715    -0.1738    -3.0668 H       
  48 H48           -0.2020    -1.1893    -3.1964 H       
  49 H49            0.4223     0.8082    -5.0306 H       
  50 H50           -2.3487     2.5028    -4.6046 H       
  51 H51           -1.2422     4.7207    -4.6932 H       
  52 H52           -0.2490     4.9468    -3.2335 H       
  53 H53           -2.3764     0.0644    -4.0483 H       
  54 H54           -1.9939     0.7934    -5.6264 H       
  55 H55           -1.4237    -0.8486    -5.2429 H       
  56 H56            1.8603     1.8943    -2.8796 H       
  57 H57            1.4401     3.4305    -2.0847 H       
  58 H58            1.6981     1.9647    -1.1084 H       
  59 H59            1.0750     3.9563     0.0259 H       
  60 H60            1.8274     2.4233     1.7970 H       
  61 H61            2.4560     0.8986     2.4666 H       
  62 H62            2.1854     1.0566     0.7144 H       
@<TRIPOS>BOND
   1    1    2 1
   2    1   25 1
   3    1    6 1
   4    1   35 1
   5    2    7 1
   6    2   27 1
   7    2    3 1
   8    3    4 1
   9    3   10 1
  10    3   36 1
  11    4    5 1
  12    4   15 1
  13    4   37 1
  14    5    6 1
  15    5   17 1
  16    5   24 1
  17    6   38 1
  18    6   39 1
  19    7    8 1
  20    7   11 1
  21    7   26 1
  22    8    9 1
  23    8   14 2
  24    9   10 1
  25    9   40 1
  26    9   41 1
  27   10   42 1
  28   10   43 1
  29   11   12 2
  30   11   44 1
  31   12   13 1
  32   12   45 1
  33   13   14 1
  34   13   28 2
  35   14   46 1
  36   15   16 1
  37   15   47 1
  38   15   48 1
  39   16   17 1
  40   16   23 1
  41   16   49 1
  42   17   18 1
  43   17   19 1
  44   18   20 2
  45   18   21 1
  46   19   50 1
  47   21   22 1
  48   21   51 1
  49   21   52 1
  50   22   29 1
  51   23   53 1
  52   23   54 1
  53   23   55 1
  54   24   56 1
  55   24   57 1
  56   24   58 1
  57   25   59 1
  58   26   60 1
  59   26   61 1
  60   26   62 1
  61   29   30 2
  62   29   31 1
  63   29   33 1
  64   31   32 1
  65   33   34 1

#	End of record

