#	Name: ASD01140232
#	Creating user name:	WinNT
#	Creation time:	15. 06. 2019 19:00

#	Modifying user name:	WinNT
#	Modification time:	15. 06. 2019 19:00

#	Program:	/corina/corina34_cracker 3.40 0067  02.08.2006

@<TRIPOS>MOLECULE
ASD01140232
  85   92    0    0    0
SMALL
NO_CHARGES


@<TRIPOS>ATOM
   1 C1             0.3077     1.7050     0.4960 C.ar    
   2 C2             0.1996     0.3115     0.4957 C.ar    
   3 C3             1.3362    -0.4722     0.3438 C.ar    
   4 C4             2.5949     0.1245     0.1907 C.ar    
   5 C5             2.6838     1.5184     0.1694 C.ar    
   6 C6             3.7632    -0.7577     0.0915 C.2     
   7 N7             4.7800    -0.6359    -0.6873 N.2     
   8 C8             4.8862     0.4644    -1.6525 C.3     
   9 C9             4.8857     1.7561    -0.8767 C.2     
  10 N10            3.8979     2.1758    -0.0474 N.pl3   
  11 C11           -1.0820    -0.3078     0.6523 C.1     
  12 C12            4.2958     3.3566     0.4999 C.2     
  13 C13            5.8551     2.7114    -0.8628 C.2     
  14 N14            5.4564     3.6804     0.0043 N.2     
  15 C15            9.7746     8.6956    -7.3339 C.2     
  16 N16            9.0527     8.2486    -8.3965 N.2     
  17 C17            9.8948    10.0449    -7.4651 C.2     
  18 N18            9.2669    10.3940    -8.6141 N.pl3   
  19 C19            8.7428     9.2608    -9.1561 C.2     
  20 C20           10.5704    10.9994    -6.5140 C.3     
  21 N21            9.5621    11.9605    -6.0536 N.2     
  22 C22            8.9437    12.7394    -6.8720 C.2     
  23 C23            9.0892    12.8136    -8.3308 C.ar    
  24 C24            9.2031    11.6844    -9.1444 C.ar    
  25 C25            9.1071    14.0828    -8.9237 C.ar    
  26 C26            9.2072    14.2135   -10.3029 C.ar    
  27 C27            9.2865    13.0731   -11.1071 C.ar    
  28 C28            9.2286    15.5148   -10.9001 C.1     
  29 C29           10.6840     5.7928    -5.1278 C.3     
  30 O30            9.8979     6.0118    -3.9547 O.3     
  31 C31           -2.1327    -0.8155     0.7808 C.1     
  32 C32            9.2461    16.5817   -11.3897 C.1     
  33 C33            9.1897     3.6370    -2.3267 C.3     
  34 C34            7.9662    13.6740    -6.2675 C.ar    
  35 C35            6.9088    14.1708    -7.0294 C.ar    
  36 C36            6.0012    15.0406    -6.4605 C.ar    
  37 C37            6.1388    15.4205    -5.1374 C.ar    
  38 C38            7.1857    14.9315    -4.3766 C.ar    
  39 C39            8.0962    14.0562    -4.9324 C.ar    
  40 C40            3.7734    -1.9296     0.9976 C.ar    
  41 C41            3.0708    -1.8897     2.2019 C.ar    
  42 C42            3.0837    -2.9846     3.0414 C.ar    
  43 C43            3.7919    -4.1202     2.6910 C.ar    
  44 C44            4.4910    -4.1657     1.4981 C.ar    
  45 C45            4.4807    -3.0795     0.6473 C.ar    
  46 C46            9.2830    11.8259   -10.5281 C.ar    
  47 C47            1.5400     2.2957     0.3337 C.ar    
  48 O48            8.8810     3.9281    -3.6912 O.3     
  49 C49            8.6508     5.3140    -3.9521 C.3     
  50 C50           10.3193     7.8734    -6.2416 C.2     
  51 O51           10.1179     6.5407    -6.2363 O.3     
  52 O52           10.9508     8.3962    -5.3442 O.2     
  53 C53            7.1038     2.6980    -1.6415 C.2     
  54 O54            7.9792     3.7168    -1.5289 O.3     
  55 O55            7.3457     1.7683    -2.3861 O.2     
  56 H56           -0.5740     2.3165     0.6187 H       
  57 H57            1.2495    -1.5487     0.3441 H       
  58 H58            5.8143     0.3726    -2.2167 H       
  59 H59            4.0353     0.4420    -2.3333 H       
  60 H60            3.7401     3.9316     1.2258 H       
  61 H61            8.1648     9.2090   -10.0670 H       
  62 H62           10.9726    10.4499    -5.6629 H       
  63 H63           11.3746    11.5257    -7.0282 H       
  64 H64            9.0423    14.9652    -8.3045 H       
  65 H65            9.3502    13.1713   -12.1808 H       
  66 H66           11.7058     6.1272    -4.9481 H       
  67 H67           10.6867     4.7301    -5.3702 H       
  68 H68           -3.0724    -1.2696     0.8956 H       
  69 H69            9.2618    17.5359   -11.8276 H       
  70 H70            9.6066     2.6324    -2.2548 H       
  71 H71            9.9171     4.3595    -1.9566 H       
  72 H72            6.8008    13.8755    -8.0626 H       
  73 H73            5.1821    15.4259    -7.0495 H       
  74 H74            5.4261    16.1018    -4.6966 H       
  75 H75            7.2881    15.2320    -3.3443 H       
  76 H76            8.9131    13.6752    -4.3376 H       
  77 H77            2.5182    -1.0034     2.4768 H       
  78 H78            2.5401    -2.9548     3.9742 H       
  79 H79            3.7993    -4.9746     3.3516 H       
  80 H80            5.0423    -5.0549     1.2301 H       
  81 H81            5.0269    -3.1161    -0.2837 H       
  82 H82            9.3433    10.9469   -11.1527 H       
  83 H83            1.6208     3.3727     0.3336 H       
  84 H84            8.0049     5.7272    -3.1774 H       
  85 H85            8.1699     5.4258    -4.9239 H       
@<TRIPOS>BOND
   1    1    2 ar
   2    1   47 ar
   3    1   56 1
   4    2    3 ar
   5    2   11 1
   6    3    4 ar
   7    3   57 1
   8    4    5 ar
   9    4    6 1
  10    5   47 ar
  11    5   10 1
  12    6    7 2
  13    6   40 1
  14    7    8 1
  15    8    9 1
  16    8   58 1
  17    8   59 1
  18    9   10 1
  19    9   13 2
  20   10   12 1
  21   11   31 3
  22   12   14 2
  23   12   60 1
  24   13   14 1
  25   13   53 1
  26   15   16 1
  27   15   17 2
  28   15   50 1
  29   16   19 2
  30   17   18 1
  31   17   20 1
  32   18   19 1
  33   18   24 1
  34   19   61 1
  35   20   21 1
  36   20   62 1
  37   20   63 1
  38   21   22 2
  39   22   23 1
  40   22   34 1
  41   23   24 ar
  42   23   25 ar
  43   24   46 ar
  44   25   26 ar
  45   25   64 1
  46   26   27 ar
  47   26   28 1
  48   27   46 ar
  49   27   65 1
  50   28   32 3
  51   29   51 1
  52   29   30 1
  53   29   66 1
  54   29   67 1
  55   30   49 1
  56   31   68 1
  57   32   69 1
  58   33   48 1
  59   33   54 1
  60   33   70 1
  61   33   71 1
  62   34   35 ar
  63   34   39 ar
  64   35   36 ar
  65   35   72 1
  66   36   37 ar
  67   36   73 1
  68   37   38 ar
  69   37   74 1
  70   38   39 ar
  71   38   75 1
  72   39   76 1
  73   40   41 ar
  74   40   45 ar
  75   41   42 ar
  76   41   77 1
  77   42   43 ar
  78   42   78 1
  79   43   44 ar
  80   43   79 1
  81   44   45 ar
  82   44   80 1
  83   45   81 1
  84   46   82 1
  85   47   83 1
  86   48   49 1
  87   49   84 1
  88   49   85 1
  89   50   51 1
  90   50   52 2
  91   53   54 1
  92   53   55 2

#	End of record

