#	Name: ASD00310163
#	Creating user name:	WinNT
#	Creation time:	15. 06. 2019 18:33

#	Modifying user name:	WinNT
#	Modification time:	15. 06. 2019 18:33

#	Program:	/corina/corina34_cracker 3.40 0067  02.08.2006

@<TRIPOS>MOLECULE
ASD00310163
  40   43    0    0    0
SMALL
NO_CHARGES


@<TRIPOS>ATOM
   1 N1            -0.0163     1.3502     0.0095 N.pl3   
   2 C2             0.0021    -0.0041     0.0020 C.2     
   3 C3             1.2920    -0.4483    -0.0127 C.2     
   4 C4             2.1475     0.7541    -0.0144 C.ar    
   5 C5             3.5229     0.9580    -0.0271 C.ar    
   6 C6             4.0248     2.2536    -0.0256 C.ar    
   7 C7             3.1469     3.3446    -0.0109 C.ar    
   8 C8             1.7845     3.1441     0.0021 C.ar    
   9 C9             1.2694     1.8504    -0.0001 C.ar    
  10 C10            1.7401    -1.8454    -0.0240 C.2     
  11 O11            2.9285    -2.1026    -0.0364 O.2     
  12 O12            0.8340    -2.8440    -0.0208 O.3     
  13 C13            8.2291     2.9068    -0.0640 C.ar    
  14 C14            7.4116     3.5716    -0.9779 C.ar    
  15 C15            6.0507     3.3599    -0.9656 C.ar    
  16 C16            5.4899     2.4811    -0.0391 C.ar    
  17 C17            6.3073     1.8166     0.8750 C.ar    
  18 C18            7.6683     2.0279     0.8625 C.ar    
  19 C19            9.6946     3.1300    -0.0812 C.ar    
  20 C20           10.3719     3.4405     1.1027 C.ar    
  21 C21           11.7415     3.6470     1.0773 C.ar    
  22 C22           12.4351     3.5463    -0.1142 C.ar    
  23 C23           11.7681     3.2394    -1.2867 C.ar    
  24 C24           10.4044     3.0259    -1.2753 C.ar    
  25 O25            9.6891     3.5396     2.2728 O.3     
  26 F26            3.6399     4.6025    -0.0091 F       
  27 H27           -0.8206     1.8924     0.0163 H       
  28 H28           -0.8729    -0.6372     0.0070 H       
  29 H29            4.1971     0.1143    -0.0377 H       
  30 H30            1.1148     3.9912     0.0138 H       
  31 H31            1.1771    -3.7481    -0.0286 H       
  32 H32            7.8458     4.2525    -1.6951 H       
  33 H33            5.4176     3.8750    -1.6730 H       
  34 H34            5.8730     1.1361     1.5925 H       
  35 H35            8.3012     1.5131     1.5702 H       
  36 H36           12.2678     3.8872     1.9893 H       
  37 H37           13.5028     3.7084    -0.1298 H       
  38 H38           12.3170     3.1625    -2.2137 H       
  39 H39            9.8876     2.7821    -2.1918 H       
  40 H40            9.6236     2.7078     2.7617 H       
@<TRIPOS>BOND
   1    1    2 1
   2    1    9 1
   3    1   27 1
   4    2    3 2
   5    2   28 1
   6    3    4 1
   7    3   10 1
   8    4    5 ar
   9    4    9 ar
  10    5    6 ar
  11    5   29 1
  12    6    7 ar
  13    6   16 1
  14    7    8 ar
  15    7   26 1
  16    8    9 ar
  17    8   30 1
  18   10   11 2
  19   10   12 1
  20   12   31 1
  21   13   14 ar
  22   13   18 ar
  23   13   19 1
  24   14   15 ar
  25   14   32 1
  26   15   16 ar
  27   15   33 1
  28   16   17 ar
  29   17   18 ar
  30   17   34 1
  31   18   35 1
  32   19   20 ar
  33   19   24 ar
  34   20   21 ar
  35   20   25 1
  36   21   22 ar
  37   21   36 1
  38   22   23 ar
  39   22   37 1
  40   23   24 ar
  41   23   38 1
  42   24   39 1
  43   25   40 1

#	End of record

