#	Name: ASD00122073
#	Creating user name:	WinNT
#	Creation time:	15. 06. 2019 18:31

#	Modifying user name:	WinNT
#	Modification time:	15. 06. 2019 18:31

#	Program:	/corina/corina34_cracker 3.40 0067  02.08.2006

@<TRIPOS>MOLECULE
ASD00122073
  32   35    0    0    0
SMALL
NO_CHARGES


@<TRIPOS>ATOM
   1 C1            -0.0168     1.3911     0.0097 C.ar    
   2 C2             0.0021    -0.0041     0.0020 C.ar    
   3 C3            -1.2312    -0.6875     0.0106 C.ar    
   4 N4            -2.3555     0.0147     0.0259 N.ar    
   5 C5            -2.3201     1.3311     0.0330 C.ar    
   6 N6            -1.1863     2.0083     0.0297 N.ar    
   7 N7             0.9772    -0.9453    -0.0127 N.2     
   8 C8             0.4371    -2.1293    -0.0137 C.2     
   9 N9            -0.9214    -2.0243     0.0004 N.pl3   
  10 C10            1.2025    -3.4274    -0.0290 C.3     
  11 S11            1.5262    -3.9570     1.6712 S.3     
  12 C12            2.4060    -5.4524     1.3636 C.ar    
  13 N13            2.6174    -5.8252     0.1070 N.ar    
  14 C14            3.2743    -6.9422    -0.1760 C.ar    
  15 C15            3.7466    -7.7312     0.8842 C.ar    
  16 C16            3.5003    -7.2986     2.1988 C.ar    
  17 N17            2.8384    -6.1633     2.3931 N.ar    
  18 C18            1.2683     2.1781     0.0016 C.3     
  19 O19            3.4844    -7.3140    -1.4616 O.3     
  20 N20            4.4346    -8.8968     0.9699 N.2     
  21 C21            4.6209    -9.1986     2.2215 C.2     
  22 N22            4.0628    -8.2431     3.0197 N.pl3   
  23 H23           -3.2521     1.8768     0.0452 H       
  24 H24           -1.5537    -2.7598     0.0027 H       
  25 H25            0.6152    -4.1894    -0.5414 H       
  26 H26            2.1484    -3.2853    -0.5517 H       
  27 H27            1.5684     2.3733    -1.0279 H       
  28 H28            1.1184     3.1240     0.5220 H       
  29 H29            2.0478     1.6061     0.5050 H       
  30 H30            4.3062    -6.9731    -1.8402 H       
  31 H31            5.1408   -10.0761     2.5764 H       
  32 H32            4.0636    -8.2334     3.9897 H       
@<TRIPOS>BOND
   1    1    2 ar
   2    1   18 1
   3    1    6 ar
   4    2    3 ar
   5    2    7 1
   6    3    4 ar
   7    3    9 1
   8    4    5 ar
   9    5    6 ar
  10    5   23 1
  11    7    8 2
  12    8    9 1
  13    8   10 1
  14    9   24 1
  15   10   11 1
  16   10   25 1
  17   10   26 1
  18   11   12 1
  19   12   13 ar
  20   12   17 ar
  21   13   14 ar
  22   14   15 ar
  23   14   19 1
  24   15   16 ar
  25   15   20 1
  26   16   17 ar
  27   16   22 1
  28   18   27 1
  29   18   28 1
  30   18   29 1
  31   19   30 1
  32   20   21 2
  33   21   22 1
  34   21   31 1
  35   22   32 1

#	End of record

