#	Name: ASD09900019
#	Creating user name:	WinNT
#	Creation time:	15. 06. 2019 21:24

#	Modifying user name:	WinNT
#	Modification time:	15. 06. 2019 21:24

#	Program:	/corina/corina34_cracker 3.40 0067  02.08.2006

@<TRIPOS>MOLECULE
ASD09900019
  35   37    0    0    0
SMALL
NO_CHARGES


@<TRIPOS>ATOM
   1 C1             0.0161     1.3202    -0.2270 C.ar    
   2 C2             0.0422    -0.0426    -0.1674 C.ar    
   3 C3             1.2482    -0.7227    -0.0510 C.ar    
   4 C4             2.4393    -0.0347     0.0064 C.ar    
   5 C5             2.4386     1.3563    -0.0531 C.ar    
   6 C6             1.2147     2.0434    -0.1711 C.ar    
   7 N7             3.4380     2.2998    -0.0202 N.pl3   
   8 C8             2.8684     3.5548    -0.1150 C.2     
   9 C9             1.5190     3.4257    -0.2069 C.2     
  10 C10            3.6051     4.8276    -0.1156 C.2     
  11 O11            3.0012     5.8798    -0.2043 O.2     
  12 N12            4.9493     4.8282    -0.0179 N.am    
  13 N13            5.6411     6.0015    -0.1213 N.3     
  14 C14            6.6571     5.9221    -1.1785 C.3     
  15 C15            7.3103     7.2935    -1.3642 C.3     
  16 C16            7.9529     7.7301    -0.0448 C.3     
  17 C17            6.8830     7.7581     1.0503 C.3     
  18 C18            6.2422     6.3732     1.1659 C.3     
  19 H19           -0.9259     1.8400    -0.3217 H       
  20 H20           -0.8831    -0.5978    -0.2107 H       
  21 H21            1.2512    -1.8017    -0.0047 H       
  22 H22            3.3714    -0.5725     0.0976 H       
  23 H23            4.3870     2.1148     0.0573 H       
  24 H24            0.8063     4.2327    -0.2922 H       
  25 H25            5.4255     3.9954     0.1257 H       
  26 H26            7.4170     5.1928    -0.8979 H       
  27 H27            6.1862     5.6147    -2.1123 H       
  28 H28            8.0752     7.2304    -2.1382 H       
  29 H29            6.5532     8.0204    -1.6583 H       
  30 H30            8.7368     7.0243     0.2298 H       
  31 H31            8.3819     8.7255    -0.1604 H       
  32 H32            7.3427     8.0269     2.0014 H       
  33 H33            6.1192     8.4923     0.7941 H       
  34 H34            5.4700     6.3934     1.9350 H       
  35 H35            7.0040     5.6418     1.4356 H       
@<TRIPOS>BOND
   1    1    2 ar
   2    1    6 ar
   3    1   19 1
   4    2    3 ar
   5    2   20 1
   6    3    4 ar
   7    3   21 1
   8    4    5 ar
   9    4   22 1
  10    5    7 1
  11    5    6 ar
  12    6    9 1
  13    7    8 1
  14    7   23 1
  15    8    9 2
  16    8   10 1
  17    9   24 1
  18   10   11 2
  19   10   12 am
  20   12   13 1
  21   12   25 1
  22   13   14 1
  23   13   18 1
  24   14   15 1
  25   14   26 1
  26   14   27 1
  27   15   16 1
  28   15   28 1
  29   15   29 1
  30   16   17 1
  31   16   30 1
  32   16   31 1
  33   17   18 1
  34   17   32 1
  35   17   33 1
  36   18   34 1
  37   18   35 1

#	End of record

