#	Name: ASD01903034
#	Creating user name:	WinNT
#	Creation time:	15. 06. 2019 19:54

#	Modifying user name:	WinNT
#	Modification time:	15. 06. 2019 19:54

#	Program:	/corina/corina34_cracker 3.40 0067  02.08.2006

@<TRIPOS>MOLECULE
ASD01903034
  36   38    0    0    0
SMALL
NO_CHARGES


@<TRIPOS>ATOM
   1 C1             0.0388     0.9655     0.0621 C.ar    
   2 C2             0.0304    -0.4158     0.0666 C.ar    
   3 C3             1.2230    -1.1178    -0.0513 C.ar    
   4 C4             2.4225    -0.4323    -0.1730 C.ar    
   5 C5             2.4320     0.9489    -0.1771 C.ar    
   6 C6             1.2402     1.6518    -0.0602 C.ar    
   7 N7             1.2496     3.0517    -0.0648 N.am    
   8 C8             0.2337     3.7305    -0.6335 C.2     
   9 O9            -0.6400     3.1309    -1.2286 O.2     
  10 C10            0.1819     5.2075    -0.5331 C.ar    
  11 O11            1.2146    -2.4774    -0.0469 O.3     
  12 N12            1.1389     5.8568     0.1182 N.ar    
  13 C13            1.1306     7.1673     0.2300 C.ar    
  14 C14            0.1146     7.9231    -0.3324 C.ar    
  15 C15           -0.9052     7.2852    -1.0216 C.ar    
  16 C16           -0.8680     5.9040    -1.1281 C.ar    
  17 Cl17          -1.4707    -1.2743     0.2200 Cl      
  18 C18            2.3900    -3.1233    -0.2649 C.ar    
  19 C19            3.3456    -3.1844     0.7387 C.ar    
  20 C20            4.5407    -3.8427     0.5143 C.ar    
  21 C21            4.7830    -4.4399    -0.7101 C.ar    
  22 C22            3.8314    -4.3798    -1.7115 C.ar    
  23 C23            2.6340    -3.7279    -1.4902 C.ar    
  24 Cl24           5.7379    -3.9195     1.7691 Cl      
  25 H25           -0.8889     1.5117     0.1493 H       
  26 H26            3.3496    -0.9787    -0.2642 H       
  27 H27            3.3664     1.4821    -0.2711 H       
  28 H28            1.9874     3.5330     0.3413 H       
  29 H29            1.9264     7.6610     0.7679 H       
  30 H30            0.1169     8.9986    -0.2345 H       
  31 H31           -1.7083     7.8521    -1.4688 H       
  32 H32           -1.6457     5.3744    -1.6582 H       
  33 H33            3.1566    -2.7179     1.6943 H       
  34 H34            5.7171    -4.9534    -0.8841 H       
  35 H35            4.0231    -4.8464    -2.6665 H       
  36 H36            1.8914    -3.6815    -2.2729 H       
@<TRIPOS>BOND
   1    1    2 ar
   2    1    6 ar
   3    1   25 1
   4    2    3 ar
   5    2   17 1
   6    3    4 ar
   7    3   11 1
   8    4    5 ar
   9    4   26 1
  10    5    6 ar
  11    5   27 1
  12    6    7 1
  13    7    8 am
  14    7   28 1
  15    8    9 2
  16    8   10 1
  17   10   12 ar
  18   10   16 ar
  19   11   18 1
  20   12   13 ar
  21   13   14 ar
  22   13   29 1
  23   14   15 ar
  24   14   30 1
  25   15   16 ar
  26   15   31 1
  27   16   32 1
  28   18   19 ar
  29   18   23 ar
  30   19   20 ar
  31   19   33 1
  32   20   21 ar
  33   20   24 1
  34   21   22 ar
  35   21   34 1
  36   22   23 ar
  37   22   35 1
  38   23   36 1

#	End of record

