#	Name: ASD03081109
#	Creating user name:	WinNT
#	Creation time:	15. 06. 2019 20:26

#	Modifying user name:	WinNT
#	Modification time:	15. 06. 2019 20:26

#	Program:	/corina/corina34_cracker 3.40 0067  02.08.2006

@<TRIPOS>MOLECULE
ASD03081109
  11   11    0    0    0
SMALL
NO_CHARGES


@<TRIPOS>ATOM
   1 C1            -0.0169     1.3947     0.0097 C.ar    
   2 C2             0.0021    -0.0041     0.0020 C.ar    
   3 C3             1.2520    -0.6384    -0.0133 C.ar    
   4 C4             2.3822     0.1613    -0.0198 C.ar    
   5 N5             2.2604     1.4750    -0.0116 N.ar    
   6 N6             1.1201     2.0622     0.0024 N.ar    
   7 C7            -1.2131    -0.7616     0.0100 C.1     
   8 N8            -2.1772    -1.3625     0.0164 N.1     
   9 H9            -0.9578     1.9249     0.0170 H       
  10 H10            1.3309    -1.7155    -0.0195 H       
  11 H11            3.3633    -0.2901    -0.0313 H       
@<TRIPOS>BOND
   1    1    2 ar
   2    1    6 ar
   3    1    9 1
   4    2    3 ar
   5    2    7 1
   6    3    4 ar
   7    3   10 1
   8    4    5 ar
   9    4   11 1
  10    5    6 ar
  11    7    8 3

#	End of record

