#	Name: ASD02198737
#	Creating user name:	WinNT
#	Creation time:	15. 06. 2019 20:20

#	Modifying user name:	WinNT
#	Modification time:	15. 06. 2019 20:20

#	Program:	/corina/corina34_cracker 3.40 0067  02.08.2006

@<TRIPOS>MOLECULE
ASD02198737
  49   53    0    0    0
SMALL
NO_CHARGES


@<TRIPOS>ATOM
   1 F1             1.9701    -1.6896     2.4653 F       
   2 C2            -0.0280     1.6627    -0.1911 C.2     
   3 C3            -0.0878     0.3151    -0.0452 C.2     
   4 N4             1.0293    -0.4057     0.2009 N.pl3   
   5 N5             2.1945     0.1172     0.3108 N.2     
   6 C6             2.3935     1.4124     0.1907 C.2     
   7 C7             1.2387     2.2842    -0.0778 C.2     
   8 C8             0.9073    -1.7923     0.3432 C.ar    
   9 C9             1.3865    -2.4193     1.4894 C.ar    
  10 C10            1.2654    -3.7889     1.6286 C.ar    
  11 C11            0.6656    -4.5381     0.6246 C.ar    
  12 C12            0.1873    -3.9111    -0.5198 C.ar    
  13 C13            0.3025    -2.5430    -0.6573 C.ar    
  14 C14            3.7503     1.9806     0.3238 C.2     
  15 N15            4.3981     2.7595    -0.5935 N.pl3   
  16 N16            5.6563     3.0797    -0.0686 N.2     
  17 C17            5.7739     2.5250     1.1114 C.2     
  18 C18            4.5989     1.8303     1.3987 C.2     
  19 C19            3.8941     3.1643    -1.8360 C.ar    
  20 C20            4.0881     4.4677    -2.2743 C.ar    
  21 C21            3.5899     4.8638    -3.5000 C.ar    
  22 C22            2.8985     3.9642    -4.2905 C.ar    
  23 C23            2.7033     2.6657    -3.8567 C.ar    
  24 C24            3.2044     2.2617    -2.6347 C.ar    
  25 O25            1.3680     3.4934    -0.1985 O.2     
  26 N26            0.5433    -5.9242     0.7650 N.am    
  27 C27            0.8784    -6.8501    -0.1566 C.2     
  28 N28            0.0563    -6.6014     1.8909 N.pl3   
  29 C29            0.0982    -7.9423     1.6327 C.2     
  30 C30            0.5948    -8.1225     0.3920 C.2     
  31 O31            1.3414    -6.6303    -1.2614 O.2     
  32 C32           -0.4155    -5.9793     3.1304 C.3     
  33 F33           -1.7110    -6.4259     3.4125 F       
  34 F34            0.4379    -6.3295     4.1822 F       
  35 H35           -0.9173     2.2418    -0.3917 H       
  36 H36           -1.0399    -0.1882    -0.1262 H       
  37 H37            1.6372    -4.2765     2.5176 H       
  38 H38           -0.2786    -4.4945    -1.3001 H       
  39 H39           -0.0694    -2.0567    -1.5470 H       
  40 H40            6.6365     2.5966     1.7573 H       
  41 H41            4.3938     1.2700     2.2990 H       
  42 H42            4.6276     5.1709    -1.6573 H       
  43 H43            3.7401     5.8774    -3.8413 H       
  44 H44            2.5099     4.2764    -5.2486 H       
  45 H45            2.1623     1.9656    -4.4761 H       
  46 H46            3.0516     1.2475    -2.2964 H       
  47 H47           -0.2112    -8.7255     2.3089 H       
  48 H48            0.7488    -9.0728    -0.0975 H       
  49 H49           -0.4222    -4.8956     3.0134 H       
@<TRIPOS>BOND
   1    1    9 1
   2    2    3 2
   3    2    7 1
   4    2   35 1
   5    3    4 1
   6    3   36 1
   7    4    5 1
   8    4    8 1
   9    5    6 2
  10    6    7 1
  11    6   14 1
  12    7   25 2
  13    8    9 ar
  14    8   13 ar
  15    9   10 ar
  16   10   11 ar
  17   10   37 1
  18   11   12 ar
  19   11   26 1
  20   12   13 ar
  21   12   38 1
  22   13   39 1
  23   14   15 1
  24   14   18 2
  25   15   16 1
  26   15   19 1
  27   16   17 2
  28   17   18 1
  29   17   40 1
  30   18   41 1
  31   19   20 ar
  32   19   24 ar
  33   20   21 ar
  34   20   42 1
  35   21   22 ar
  36   21   43 1
  37   22   23 ar
  38   22   44 1
  39   23   24 ar
  40   23   45 1
  41   24   46 1
  42   26   28 1
  43   26   27 am
  44   27   31 2
  45   27   30 1
  46   28   29 1
  47   28   32 1
  48   29   30 2
  49   29   47 1
  50   30   48 1
  51   32   33 1
  52   32   34 1
  53   32   49 1

#	End of record

