#	Name: ASD01148474
#	Creating user name:	WinNT
#	Creation time:	15. 06. 2019 19:02

#	Modifying user name:	WinNT
#	Modification time:	15. 06. 2019 19:02

#	Program:	/corina/corina34_cracker 3.40 0067  02.08.2006

@<TRIPOS>MOLECULE
ASD01148474
  64   67    0    0    0
SMALL
NO_CHARGES


@<TRIPOS>ATOM
   1 C1            -0.0166     1.5729    -0.1082 C.ar    
   2 C2             0.0150     0.1915    -0.1460 C.ar    
   3 C3            -1.1659    -0.5271    -0.1478 C.ar    
   4 C4            -2.3784     0.1358    -0.1113 C.ar    
   5 C5            -2.4100     1.5172    -0.0726 C.ar    
   6 C6            -1.2290     2.2357    -0.0664 C.ar    
   7 C7            -3.7318     2.2399    -0.0333 C.3     
   8 O8            -4.7257     1.4605     0.6626 O.3     
   9 C9            -3.6453     3.5047     0.8539 C.3     
  10 C10           -4.1247     2.9964     2.2003 C.2     
  11 N11           -4.7093     1.8598     2.0189 N.2     
  12 C12           -3.9523     3.6833     3.4953 C.ar    
  13 C13           -4.4448     3.1008     4.6663 C.ar    
  14 C14           -3.2918     4.9131     3.5513 C.ar    
  15 C15           -3.1310     5.5538     4.7591 C.ar    
  16 C16           -3.6284     4.9741     5.9290 C.ar    
  17 C17           -4.2842     3.7412     5.8737 C.ar    
  18 C18           -3.4559     5.6615     7.2249 C.2     
  19 O19           -4.4276     6.0668     7.8318 O.2     
  20 N20           -2.2209     5.8391     7.7344 N.am    
  21 C21           -4.8211     3.1161     7.1355 C.3     
  22 C22           -4.2024     2.5920    -1.4459 C.3     
  23 F23           -4.3373     1.4201    -2.1981 F       
  24 F24           -5.4370     3.2463    -1.3766 F       
  25 F25           -3.2633     3.4314    -2.0547 F       
  26 C26           -2.0377     6.6346     8.9509 C.3     
  27 C27           -2.1322     5.7366    10.1574 C.ar    
  28 N28           -3.3144     5.4539    10.6684 N.ar    
  29 C29           -1.1543     5.2848     7.1248 C.2     
  30 C30           -3.4453     4.6730    11.7231 C.ar    
  31 C31           -2.3367     4.1194    12.3346 C.ar    
  32 C32           -1.0764     4.3940    11.8255 C.ar    
  33 C33           -0.9789     5.2142    10.7121 C.ar    
  34 O34           -1.2946     4.6971     6.0710 O.2     
  35 O35            0.0663     5.3826     7.6835 O.3     
  36 C36            1.1689     4.7618     6.9714 C.3     
  37 C37           -1.1314    -2.0331    -0.1899 C.3     
  38 F38            0.1977    -2.4685    -0.2224 F       
  39 F39           -1.7625    -2.5461     0.9484 F       
  40 F40           -1.7976    -2.4829    -1.3350 F       
  41 C41            1.2708     2.3563    -0.1064 C.3     
  42 F42            2.3546     1.4725    -0.1465 F       
  43 F43            1.3094     3.1926    -1.2272 F       
  44 F44            1.3436     3.1310     1.0563 F       
  45 H45            0.9623    -0.3264    -0.1745 H       
  46 H46           -3.3010    -0.4256    -0.1133 H       
  47 H47           -1.2536     3.3150    -0.0362 H       
  48 H48           -2.6177     3.8623     0.9188 H       
  49 H49           -4.3053     4.2867     0.4782 H       
  50 H50           -4.9519     2.1481     4.6235 H       
  51 H51           -2.9070     5.3610     2.6470 H       
  52 H52           -2.6201     6.5043     4.8024 H       
  53 H53           -5.8129     3.5166     7.3458 H       
  54 H54           -4.8853     2.0357     7.0069 H       
  55 H55           -4.1536     3.3441     7.9665 H       
  56 H56           -1.0580     7.1118     8.9289 H       
  57 H57           -2.8129     7.3990     9.0053 H       
  58 H58           -4.4303     4.4640    12.1135 H       
  59 H59           -2.4503     3.4813    13.1985 H       
  60 H60           -0.1921     3.9756    12.2831 H       
  61 H61           -0.0135     5.4489    10.2887 H       
  62 H62            0.9790     3.6935     6.8677 H       
  63 H63            1.2624     5.2118     5.9830 H       
  64 H64            2.0931     4.9141     7.5288 H       
@<TRIPOS>BOND
   1    1    2 ar
   2    1   41 1
   3    1    6 ar
   4    2    3 ar
   5    2   45 1
   6    3    4 ar
   7    3   37 1
   8    4    5 ar
   9    4   46 1
  10    5    6 ar
  11    5    7 1
  12    6   47 1
  13    7    8 1
  14    7    9 1
  15    7   22 1
  16    8   11 1
  17    9   10 1
  18    9   48 1
  19    9   49 1
  20   10   11 2
  21   10   12 1
  22   12   13 ar
  23   12   14 ar
  24   13   17 ar
  25   13   50 1
  26   14   15 ar
  27   14   51 1
  28   15   16 ar
  29   15   52 1
  30   16   17 ar
  31   16   18 1
  32   17   21 1
  33   18   19 2
  34   18   20 am
  35   20   26 1
  36   20   29 am
  37   21   53 1
  38   21   54 1
  39   21   55 1
  40   22   23 1
  41   22   24 1
  42   22   25 1
  43   26   27 1
  44   26   56 1
  45   26   57 1
  46   27   28 ar
  47   27   33 ar
  48   28   30 ar
  49   29   34 2
  50   29   35 1
  51   30   31 ar
  52   30   58 1
  53   31   32 ar
  54   31   59 1
  55   32   33 ar
  56   32   60 1
  57   33   61 1
  58   35   36 1
  59   36   62 1
  60   36   63 1
  61   36   64 1
  62   37   38 1
  63   37   39 1
  64   37   40 1
  65   41   42 1
  66   41   43 1
  67   41   44 1

#	End of record

