#	Name: ASD05170083
#	Creating user name:	WinNT
#	Creation time:	15. 06. 2019 20:57

#	Modifying user name:	WinNT
#	Modification time:	15. 06. 2019 20:57

#	Program:	/corina/corina34_cracker 3.40 0067  02.08.2006

@<TRIPOS>MOLECULE
ASD05170083
  46   49    0    0    0
SMALL
NO_CHARGES


@<TRIPOS>ATOM
   1 C1            -0.2244     1.4607    -1.1265 C.ar    
   2 C2            -0.2357     0.0855    -1.2807 C.ar    
   3 C3             0.9621    -0.6063    -1.1445 C.ar    
   4 C4             2.1190     0.0957    -0.8614 C.ar    
   5 N5             2.0959     1.4077    -0.7199 N.ar    
   6 C6             0.9759     2.0995    -0.8426 C.ar    
   7 O7             0.9992     3.4479    -0.6897 O.3     
   8 C8             2.2640     4.0460    -0.3989 C.3     
   9 C9             2.0953     5.5375    -0.2643 C.2     
  10 C10            0.8932     6.2460    -0.3940 C.2     
  11 N11            3.0474     6.4014     0.0008 N.2     
  12 C12            1.2296     7.5546    -0.1937 C.2     
  13 C13            0.4215     8.7835    -0.1946 C.2     
  14 N14            2.5834     7.5880     0.0590 N.pl3   
  15 C15            3.2697     8.8514     0.3547 C.3     
  16 C16            2.5533     9.9941    -0.3635 C.3     
  17 N17            1.1055     9.9531    -0.1736 N.am    
  18 O18           -0.7944     8.7516    -0.2135 O.2     
  19 C19            3.2484     9.1034     1.8637 C.3     
  20 F20            0.9954    -1.9494    -1.2868 F       
  21 C21            0.4103    11.1476     0.0388 C.ar    
  22 C22            0.3128    12.0867    -0.9799 C.ar    
  23 C23           -0.3750    13.2653    -0.7671 C.ar    
  24 C24           -0.9659    13.5111     0.4588 C.ar    
  25 C25           -0.8703    12.5784     1.4753 C.ar    
  26 C26           -0.1892    11.3951     1.2670 C.ar    
  27 C27           -1.7152    14.7984     0.6876 C.3     
  28 H28           -1.1361     2.0303    -1.2299 H       
  29 H29           -1.1542    -0.4381    -1.5014 H       
  30 H30            3.0530    -0.4360    -0.7544 H       
  31 H31            2.6525     3.6386     0.5345 H       
  32 H32            2.9622     3.8308    -1.2077 H       
  33 H33           -0.0866     5.8446    -0.6069 H       
  34 H34            4.3019     8.7945     0.0091 H       
  35 H35            2.9318    10.9425     0.0179 H       
  36 H36            2.7723     9.9326    -1.4296 H       
  37 H37            3.7561     8.2860     2.3757 H       
  38 H38            3.7582    10.0416     2.0826 H       
  39 H39            2.2158     9.1620     2.2077 H       
  40 H40            0.7746    11.8956    -1.9373 H       
  41 H41           -0.4512    13.9959    -1.5588 H       
  42 H42           -1.3323    12.7737     2.4317 H       
  43 H43           -0.1187    10.6652     2.0598 H       
  44 H44           -2.7618    14.6631     0.4147 H       
  45 H45           -1.6469    15.0765     1.7393 H       
  46 H46           -1.2788    15.5867     0.0742 H       
@<TRIPOS>BOND
   1    1    2 ar
   2    1    6 ar
   3    1   28 1
   4    2    3 ar
   5    2   29 1
   6    3    4 ar
   7    3   20 1
   8    4    5 ar
   9    4   30 1
  10    5    6 ar
  11    6    7 1
  12    7    8 1
  13    8    9 1
  14    8   31 1
  15    8   32 1
  16    9   11 2
  17    9   10 1
  18   10   12 2
  19   10   33 1
  20   11   14 1
  21   12   14 1
  22   12   13 1
  23   13   17 am
  24   13   18 2
  25   14   15 1
  26   15   16 1
  27   15   19 1
  28   15   34 1
  29   16   17 1
  30   16   35 1
  31   16   36 1
  32   17   21 1
  33   19   37 1
  34   19   38 1
  35   19   39 1
  36   21   22 ar
  37   21   26 ar
  38   22   23 ar
  39   22   40 1
  40   23   24 ar
  41   23   41 1
  42   24   25 ar
  43   24   27 1
  44   25   26 ar
  45   25   42 1
  46   26   43 1
  47   27   44 1
  48   27   45 1
  49   27   46 1

#	End of record

