#	Name: ASD04590793
#	Creating user name:	WinNT
#	Creation time:	15. 06. 2019 20:51

#	Modifying user name:	WinNT
#	Modification time:	15. 06. 2019 20:51

#	Program:	/corina/corina34_cracker 3.40 0067  02.08.2006

@<TRIPOS>MOLECULE
ASD04590793
  39   41    0    0    0
SMALL
NO_CHARGES


@<TRIPOS>ATOM
   1 N1            -0.0161     1.3344     0.0094 N.am    
   2 C2             0.0021    -0.0041     0.0020 C.2     
   3 C3             1.2828    -0.7912     0.0282 C.3     
   4 O4             2.3813     0.0594    -0.3090 O.3     
   5 C5             2.3943     1.2801     0.4405 C.3     
   6 C6             1.2049     2.1371     0.0020 C.3     
   7 C7             1.4577     2.6720    -1.4106 C.3     
   8 C8             0.2969     3.5810    -1.8209 C.3     
   9 N9             0.1855     4.6942    -0.8697 N.3     
  10 C10           -0.1016     4.2086     0.4860 C.3     
  11 C11            1.0474     3.3180     0.9644 C.3     
  12 O12           -1.0521    -0.6031    -0.0264 O.2     
  13 C13           -0.8291     5.6618    -1.3081 C.3     
  14 C14           -1.0914     6.6508    -0.2018 C.ar    
  15 C15           -0.3489     7.8143    -0.1244 C.ar    
  16 C16           -0.5894     8.7215     0.8905 C.ar    
  17 C17           -1.5727     8.4655     1.8277 C.ar    
  18 C18           -2.3158     7.3025     1.7498 C.ar    
  19 C19           -2.0782     6.3973     0.7324 C.ar    
  20 H20           -0.8729     1.7890     0.0159 H       
  21 H21            1.4355    -1.2016     1.0264 H       
  22 H22            1.2216    -1.6068    -0.6923 H       
  23 H23            2.3114     1.0570     1.5042 H       
  24 H24            3.3230     1.8174     0.2483 H       
  25 H25            2.3875     3.2407    -1.4234 H       
  26 H26            1.5308     1.8376    -2.1081 H       
  27 H27            0.4797     3.9745    -2.8207 H       
  28 H28           -0.6306     3.0084    -1.8200 H       
  29 H29           -0.2081     5.0578     1.1610 H       
  30 H30           -1.0275     3.6335     0.4773 H       
  31 H31            0.8271     2.9454     1.9647 H       
  32 H32            1.9713     3.8959     0.9857 H       
  33 H33           -0.4693     6.1907    -2.1907 H       
  34 H34           -1.7521     5.1354    -1.5512 H       
  35 H35            0.4194     8.0143    -0.8567 H       
  36 H36           -0.0088     9.6301     0.9513 H       
  37 H37           -1.7601     9.1740     2.6210 H       
  38 H38           -3.0838     7.1023     2.4823 H       
  39 H39           -2.6613     5.4904     0.6694 H       
@<TRIPOS>BOND
   1    1    2 am
   2    1    6 1
   3    1   20 1
   4    2    3 1
   5    2   12 2
   6    3    4 1
   7    3   21 1
   8    3   22 1
   9    4    5 1
  10    5    6 1
  11    5   23 1
  12    5   24 1
  13    6    7 1
  14    6   11 1
  15    7    8 1
  16    7   25 1
  17    7   26 1
  18    8    9 1
  19    8   27 1
  20    8   28 1
  21    9   10 1
  22    9   13 1
  23   10   11 1
  24   10   29 1
  25   10   30 1
  26   11   31 1
  27   11   32 1
  28   13   14 1
  29   13   33 1
  30   13   34 1
  31   14   15 ar
  32   14   19 ar
  33   15   16 ar
  34   15   35 1
  35   16   17 ar
  36   16   36 1
  37   17   18 ar
  38   17   37 1
  39   18   19 ar
  40   18   38 1
  41   19   39 1

#	End of record

