#	Name: ASD05313173
#	Creating user name:	WinNT
#	Creation time:	15. 06. 2019 20:58

#	Modifying user name:	WinNT
#	Modification time:	15. 06. 2019 20:58

#	Program:	/corina/corina34_cracker 3.40 0067  02.08.2006

@<TRIPOS>MOLECULE
ASD05313173
  34   37    0    0    0
SMALL
NO_CHARGES


@<TRIPOS>ATOM
   1 C1            -0.0725     0.8208     1.0204 C.2     
   2 C2             0.1130    -0.6162     0.5945 C.3     
   3 N3             0.9304     1.7333     1.0464 N.pl3   
   4 N4             1.4565    -0.7171    -0.0062 N.am    
   5 C5             2.5708    -0.0355     0.6699 C.3     
   6 C6             2.3172     1.4768     0.6614 C.3     
   7 N7            -0.9056     2.6449     1.7025 N.2     
   8 N8            -1.1580     1.4126     1.4216 N.2     
   9 C9             0.3720     2.8948     1.4899 C.2     
  10 S10            2.7285     4.5319     1.4276 S.3     
  11 N11            2.6023     6.1578     1.9063 N.2     
  12 C12            1.3516     6.3357     2.2295 C.2     
  13 N13            0.5402     5.3148     2.1239 N.2     
  14 C14            1.0628     4.1810     1.6950 C.2     
  15 C15            1.6573    -1.4143    -1.1420 C.2     
  16 O16            2.7495    -1.4049    -1.6760 O.2     
  17 C17            0.5509    -2.1895    -1.7378 C.ar    
  18 C18            0.3197    -2.1372    -3.1155 C.ar    
  19 C19           -0.7165    -2.8650    -3.6663 C.ar    
  20 C20           -1.5262    -3.6457    -2.8546 C.ar    
  21 C21           -1.3000    -3.7002    -1.4878 C.ar    
  22 C22           -0.2651    -2.9824    -0.9278 C.ar    
  23 F23           -2.5393    -4.3554    -3.3979 F       
  24 Cl24          -1.0065    -2.8025    -5.3768 Cl      
  25 Cl25           1.3324    -1.1592    -4.1312 Cl      
  26 H26            0.0428    -1.2731     1.4614 H       
  27 H27           -0.6446    -0.8869    -0.1410 H       
  28 H28            2.6418    -0.3870     1.6992 H       
  29 H29            3.5016    -0.2515     0.1455 H       
  30 H30            2.4962     1.8706    -0.3391 H       
  31 H31            2.9877     1.9625     1.3703 H       
  32 H32            0.9967     7.2958     2.5739 H       
  33 H33           -1.9340    -4.3095    -0.8608 H       
  34 H34           -0.0882    -3.0295     0.1365 H       
@<TRIPOS>BOND
   1    1    2 1
   2    1    3 1
   3    1    8 2
   4    2    4 1
   5    2   26 1
   6    2   27 1
   7    3    6 1
   8    3    9 1
   9    4    5 1
  10    4   15 am
  11    5    6 1
  12    5   28 1
  13    5   29 1
  14    6   30 1
  15    6   31 1
  16    7    8 1
  17    7    9 2
  18    9   14 1
  19   10   11 1
  20   10   14 1
  21   11   12 2
  22   12   13 1
  23   12   32 1
  24   13   14 2
  25   15   16 2
  26   15   17 1
  27   17   18 ar
  28   17   22 ar
  29   18   19 ar
  30   18   25 1
  31   19   20 ar
  32   19   24 1
  33   20   21 ar
  34   20   23 1
  35   21   22 ar
  36   21   33 1
  37   22   34 1

#	End of record

