#	Name: ASD02448164
#	Creating user name:	WinNT
#	Creation time:	15. 06. 2019 20:21

#	Modifying user name:	WinNT
#	Modification time:	15. 06. 2019 20:21

#	Program:	/corina/corina34_cracker 3.40 0067  02.08.2006

@<TRIPOS>MOLECULE
ASD02448164
  52   56    0    0    0
SMALL
NO_CHARGES


@<TRIPOS>ATOM
   1 C1             0.3036     1.6668    -0.1743 C.ar    
   2 C2             0.2134     0.2904    -0.1193 C.ar    
   3 C3             1.3676    -0.4804    -0.0878 C.ar    
   4 C4             2.6130     0.1325    -0.1120 C.ar    
   5 C5             2.7042     1.5088    -0.1674 C.ar    
   6 C6             1.5496     2.2805    -0.1985 C.ar    
   7 N7             1.6414     3.6745    -0.2551 N.am    
   8 C8             0.6528     4.6234    -0.7835 C.3     
   9 C9             1.1327     6.0336    -0.6595 C.2     
  10 N10            2.3450     6.1674    -0.1034 N.am    
  11 S11            2.8961     4.6413     0.2688 S.o2    
  12 O12            0.4765     6.9826    -1.0333 O.2     
  13 O13            2.9442     4.5470     1.6858 O.2     
  14 O14            4.0032     4.3764    -0.5817 O.2     
  15 N15            1.2753    -1.8798    -0.0310 N.pl3   
  16 C16            0.6050    -2.6116     0.9126 C.2     
  17 C17            1.8295    -2.7597    -0.9052 C.2     
  18 N18            1.5255    -3.9720    -0.5331 N.2     
  19 C19            0.7717    -3.9192     0.5835 C.2     
  20 C20            0.2223    -5.0827     1.3224 C.ar    
  21 C21            0.4723    -6.3799     0.8715 C.ar    
  22 C22           -0.5397    -4.8844     2.4714 C.ar    
  23 C23           -1.0485    -5.9695     3.1561 C.ar    
  24 C24           -0.8030    -7.2553     2.7030 C.ar    
  25 C25           -0.0415    -7.4597     1.5639 C.ar    
  26 F26           -1.3035    -8.3138     3.3771 F       
  27 F27            1.2145    -6.5793    -0.2396 F       
  28 C28            1.7809    -2.3571    -3.3325 C.ar    
  29 C29            1.0806    -1.2071    -3.6455 C.ar    
  30 C30            0.2791    -1.1706    -4.7710 C.ar    
  31 C31            0.1776    -2.2850    -5.5840 C.ar    
  32 C32            0.8785    -3.4356    -5.2703 C.ar    
  33 C33            1.6799    -3.4711    -4.1447 C.ar    
  34 Br34          -0.9194    -2.2360    -7.1235 Br      
  35 C35            2.6596    -2.3944    -2.1087 C.3     
  36 H36           -0.5943     2.2662    -0.2030 H       
  37 H37           -0.7553    -0.1868    -0.1005 H       
  38 H38            3.5106    -0.4675    -0.0871 H       
  39 H39            3.6730     1.9856    -0.1859 H       
  40 H40            0.4696     4.3998    -1.8345 H       
  41 H41           -0.2793     4.5135    -0.2293 H       
  42 H42            2.8141     7.0013     0.0559 H       
  43 H43            0.0514    -2.2244     1.7552 H       
  44 H44           -0.7319    -3.8827     2.8264 H       
  45 H45           -1.6390    -5.8158     4.0472 H       
  46 H46            0.1473    -8.4640     1.2143 H       
  47 H47            1.1596    -0.3371    -3.0105 H       
  48 H48           -0.2683    -0.2722    -5.0153 H       
  49 H49            0.7993    -4.3061    -5.9047 H       
  50 H50            2.2272    -4.3694    -3.8997 H       
  51 H51            3.1104    -1.4139    -1.9551 H       
  52 H52            3.4448    -3.1375    -2.2477 H       
@<TRIPOS>BOND
   1    1    2 ar
   2    1    6 ar
   3    1   36 1
   4    2    3 ar
   5    2   37 1
   6    3    4 ar
   7    3   15 1
   8    4    5 ar
   9    4   38 1
  10    5    6 ar
  11    5   39 1
  12    6    7 1
  13    7    8 1
  14    7   11 am
  15    8    9 1
  16    8   40 1
  17    8   41 1
  18    9   10 am
  19    9   12 2
  20   10   11 am
  21   10   42 1
  22   11   13 2
  23   11   14 2
  24   15   16 1
  25   15   17 1
  26   16   19 2
  27   16   43 1
  28   17   18 2
  29   17   35 1
  30   18   19 1
  31   19   20 1
  32   20   21 ar
  33   20   22 ar
  34   21   27 1
  35   21   25 ar
  36   22   23 ar
  37   22   44 1
  38   23   24 ar
  39   23   45 1
  40   24   25 ar
  41   24   26 1
  42   25   46 1
  43   28   29 ar
  44   28   33 ar
  45   28   35 1
  46   29   30 ar
  47   29   47 1
  48   30   31 ar
  49   30   48 1
  50   31   32 ar
  51   31   34 1
  52   32   33 ar
  53   32   49 1
  54   33   50 1
  55   35   51 1
  56   35   52 1

#	End of record

