#	Name: ASD01912993
#	Creating user name:	WinNT
#	Creation time:	15. 06. 2019 20:00

#	Modifying user name:	WinNT
#	Modification time:	15. 06. 2019 20:00

#	Program:	/corina/corina34_cracker 3.40 0067  02.08.2006

@<TRIPOS>MOLECULE
ASD01912993
  43   46    0    0    0
SMALL
NO_CHARGES


@<TRIPOS>ATOM
   1 C1             0.1650     1.3850     0.2487 C.2     
   2 C2             0.2384    -0.0442     0.2977 C.1     
   3 C3             0.2985    -1.2160     0.3378 C.1     
   4 C4             0.3719    -2.6453     0.3868 C.ar    
   5 C5            -0.7981    -3.4065     0.4647 C.ar    
   6 C6             1.6136    -3.2866     0.3511 C.ar    
   7 C7             1.6761    -4.6634     0.3982 C.ar    
   8 C8             0.5137    -5.4100     0.4801 C.ar    
   9 C9            -0.7194    -4.7825     0.5110 C.ar    
  10 N10            1.1831     2.1920     0.1757 N.2     
  11 C11            0.9433     3.4916     0.1400 C.2     
  12 C12           -0.3674     3.8117     0.1801 C.2     
  13 S13           -1.3179     2.3343     0.2700 S.3     
  14 C14            2.0451     4.5408     0.0681 C.3     
  15 C15            1.4515     5.8595    -0.4310 C.3     
  16 N16            0.2162     6.1438     0.3147 N.am    
  17 C17           -0.9177     5.2201     0.1423 C.3     
  18 C18            0.1251     7.2137     1.1292 C.2     
  19 C19           -1.1733     7.5620     1.7523 C.ar    
  20 O20            1.1078     7.8928     1.3524 O.2     
  21 C21           -1.2302     8.5688     2.7129 C.ar    
  22 C22           -2.4522     8.8835     3.2870 C.ar    
  23 C23           -3.5745     8.1797     2.8800 C.ar    
  24 C24           -3.4441     7.1899     1.9186 C.ar    
  25 N25           -2.2734     6.9154     1.3864 N.ar    
  26 C26           -4.6615     6.4215     1.4731 C.3     
  27 H27           -1.7611    -2.9182     0.4890 H       
  28 H28            2.5215    -2.7053     0.2864 H       
  29 H29            2.6346    -5.1603     0.3706 H       
  30 H30            0.5690    -6.4880     0.5159 H       
  31 H31           -1.6221    -5.3718     0.5751 H       
  32 H32            2.4745     4.6866     1.0593 H       
  33 H33            2.8214     4.2071    -0.6205 H       
  34 H34            2.1677     6.6654    -0.2706 H       
  35 H35            1.2249     5.7780    -1.4941 H       
  36 H36           -1.4012     5.4028    -0.8174 H       
  37 H37           -1.6347     5.3592     0.9513 H       
  38 H38           -0.3349     9.0967     3.0066 H       
  39 H39           -2.5277     9.6591     4.0347 H       
  40 H40           -4.5413     8.4002     3.3080 H       
  41 H41           -5.1234     6.9310     0.6275 H       
  42 H42           -4.3670     5.4154     1.1744 H       
  43 H43           -5.3747     6.3622     2.2953 H       
@<TRIPOS>BOND
   1    1    2 1
   2    1   10 2
   3    1   13 1
   4    2    3 3
   5    3    4 1
   6    4    5 ar
   7    4    6 ar
   8    5    9 ar
   9    5   27 1
  10    6    7 ar
  11    6   28 1
  12    7    8 ar
  13    7   29 1
  14    8    9 ar
  15    8   30 1
  16    9   31 1
  17   10   11 1
  18   11   12 2
  19   11   14 1
  20   12   13 1
  21   12   17 1
  22   14   15 1
  23   14   32 1
  24   14   33 1
  25   15   16 1
  26   15   34 1
  27   15   35 1
  28   16   17 1
  29   16   18 am
  30   17   36 1
  31   17   37 1
  32   18   19 1
  33   18   20 2
  34   19   21 ar
  35   19   25 ar
  36   21   22 ar
  37   21   38 1
  38   22   23 ar
  39   22   39 1
  40   23   24 ar
  41   23   40 1
  42   24   25 ar
  43   24   26 1
  44   26   41 1
  45   26   42 1
  46   26   43 1

#	End of record

