#	Name: ASD01811820
#	Creating user name:	WinNT
#	Creation time:	15. 06. 2019 19:27

#	Modifying user name:	WinNT
#	Modification time:	15. 06. 2019 19:27

#	Program:	/corina/corina34_cracker 3.40 0067  02.08.2006

@<TRIPOS>MOLECULE
ASD01811820
  55   58    0    0    0
SMALL
NO_CHARGES


@<TRIPOS>ATOM
   1 C1            -0.1916     1.4838    -0.2107 C.ar    
   2 C2            -0.1022     0.1022    -0.1863 C.ar    
   3 C3             1.1292    -0.5177    -0.3073 C.ar    
   4 C4             2.2761     0.2346    -0.4534 C.ar    
   5 C5             2.1940     1.6282    -0.4793 C.ar    
   6 C6             0.9462     2.2434    -0.3560 C.ar    
   7 C7            -1.3492    -0.7288    -0.0272 C.3     
   8 C8            -1.5526    -1.0653     1.4514 C.3     
   9 C9             1.2176    -2.0218    -0.2788 C.3     
  10 C10            2.6415    -2.4462    -0.5305 C.ar    
  11 C11            3.5024    -2.6396     0.5340 C.ar    
  12 C12            4.8082    -3.0286     0.3059 C.ar    
  13 C13            5.2554    -3.2253    -0.9925 C.ar    
  14 C14            4.3896    -3.0306    -2.0589 C.ar    
  15 C15            3.0832    -2.6470    -1.8252 C.ar    
  16 O16            6.5396    -3.6076    -1.2195 O.3     
  17 C17            6.9307    -3.7913    -2.5817 C.3     
  18 C18            3.2175     2.6817    -0.6193 C.2     
  19 N19            2.6434     3.8966    -0.5862 N.am    
  20 C20            1.1950     3.7296    -0.4210 C.3     
  21 O21            4.4094     2.4798    -0.7457 O.2     
  22 C22            3.3476     5.1765    -0.6969 C.3     
  23 C23            4.0829     5.2417    -2.0390 C.3     
  24 C24            4.8777     6.5492    -2.1102 C.3     
  25 C25            5.8362     6.6203    -0.9186 C.3     
  26 O26            5.0909     6.5232     0.2969 O.3     
  27 C27            4.3651     5.3006     0.4402 C.3     
  28 O28            3.1339     5.2004    -3.1066 O.3     
  29 H29           -1.1544     1.9646    -0.1202 H       
  30 H30            3.2352    -0.2531    -0.5471 H       
  31 H31           -2.2089    -0.1678    -0.3937 H       
  32 H32           -1.2467    -1.6512    -0.5989 H       
  33 H33           -0.6930    -1.6263     1.8180 H       
  34 H34           -1.6552    -0.1429     2.0232 H       
  35 H35           -2.4546    -1.6663     1.5666 H       
  36 H36            0.8970    -2.3861     0.6972 H       
  37 H37            0.5722    -2.4384    -1.0521 H       
  38 H38            3.1539    -2.4860     1.5446 H       
  39 H39            5.4804    -3.1792     1.1377 H       
  40 H40            4.7354    -3.1831    -3.0706 H       
  41 H41            2.4087    -2.4953    -2.6550 H       
  42 H42            7.9767    -4.0952    -2.6215 H       
  43 H43            6.3104    -4.5636    -3.0367 H       
  44 H44            6.8032    -2.8555    -3.1257 H       
  45 H45            0.6687     4.1605    -1.2728 H       
  46 H46            0.8660     4.2053     0.5028 H       
  47 H47            2.6301     5.9947    -0.6345 H       
  48 H48            4.7649     4.3955    -2.1227 H       
  49 H49            5.4481     6.5787    -3.0386 H       
  50 H50            4.1911     7.3952    -2.0764 H       
  51 H51            6.5482     5.7969    -0.9751 H       
  52 H52            6.3738     7.5682    -0.9405 H       
  53 H53            3.8431     5.2978     1.3971 H       
  54 H54            5.0579     4.4599     0.4014 H       
  55 H55            3.5310     5.2381    -3.9875 H       
@<TRIPOS>BOND
   1    1    2 ar
   2    1    6 ar
   3    1   29 1
   4    2    3 ar
   5    2    7 1
   6    3    4 ar
   7    3    9 1
   8    4    5 ar
   9    4   30 1
  10    5    6 ar
  11    5   18 1
  12    6   20 1
  13    7    8 1
  14    7   31 1
  15    7   32 1
  16    8   33 1
  17    8   34 1
  18    8   35 1
  19    9   10 1
  20    9   36 1
  21    9   37 1
  22   10   11 ar
  23   10   15 ar
  24   11   12 ar
  25   11   38 1
  26   12   13 ar
  27   12   39 1
  28   13   14 ar
  29   13   16 1
  30   14   15 ar
  31   14   40 1
  32   15   41 1
  33   16   17 1
  34   17   42 1
  35   17   43 1
  36   17   44 1
  37   18   19 am
  38   18   21 2
  39   19   20 1
  40   19   22 1
  41   20   45 1
  42   20   46 1
  43   22   23 1
  44   22   27 1
  45   22   47 1
  46   23   24 1
  47   23   28 1
  48   23   48 1
  49   24   25 1
  50   24   49 1
  51   24   50 1
  52   25   26 1
  53   25   51 1
  54   25   52 1
  55   26   27 1
  56   27   53 1
  57   27   54 1
  58   28   55 1

#	End of record

