#	Name: ASD03912005
#	Creating user name:	WinNT
#	Creation time:	15. 06. 2019 20:47

#	Modifying user name:	WinNT
#	Modification time:	15. 06. 2019 20:47

#	Program:	/corina/corina34_cracker 3.40 0067  02.08.2006

@<TRIPOS>MOLECULE
ASD03912005
  52   53    0    0    0
SMALL
NO_CHARGES


@<TRIPOS>ATOM
   1 C1            -1.1318    -0.5803    -0.0735 C.ar    
   2 C2            -0.1418    -0.1033     0.7659 C.ar    
   3 C3            -0.3421     1.0612     1.4843 C.ar    
   4 C4            -1.5325     1.7513     1.3658 C.ar    
   5 C5            -2.5287     1.2750     0.5237 C.ar    
   6 C6            -2.3220     0.1085    -0.2011 C.ar    
   7 C7             0.7395     1.5774     2.3980 C.3     
   8 N8            -3.7359     1.9718     0.4013 N.am    
   9 C9            -3.7449     3.3186     0.4538 C.2     
  10 C10           -5.0276     4.0733     0.2170 C.3     
  11 O11           -2.7206     3.9230     0.6917 O.2     
  12 C12           -4.7679     5.5534     0.3309 C.ar    
  13 C13           -4.4048     6.2785    -0.7889 C.ar    
  14 C14           -4.1662     7.6354    -0.6872 C.ar    
  15 C15           -4.2912     8.2704     0.5399 C.ar    
  16 C16           -4.6557     7.5406     1.6620 C.ar    
  17 C17           -4.8987     6.1849     1.5539 C.ar    
  18 O18           -4.0565     9.6050     0.6427 O.3     
  19 C19           -4.1832    10.1879     1.9413 C.3     
  20 C20           -3.1242     9.5940     2.8723 C.3     
  21 C21           -0.9093    -1.8497    -0.8546 C.3     
  22 C22           -3.9842    11.7017     1.8424 C.3     
  23 O23           -4.1108    12.2845     3.1410 O.3     
  24 C24           -3.9413    13.7033     3.1603 C.3     
  25 C25           -5.5557     9.8965     2.4910 C.2     
  26 O26           -5.7039     9.7028     3.6744 O.2     
  27 O27           -6.6136     9.8521     1.6660 O.3     
  28 H28            0.7897    -0.6416     0.8609 H       
  29 H29           -1.6886     2.6603     1.9277 H       
  30 H30           -3.0947    -0.2643    -0.8572 H       
  31 H31            1.3948     2.2483     1.8425 H       
  32 H32            0.2860     2.1179     3.2288 H       
  33 H33            1.3201     0.7393     2.7835 H       
  34 H34           -4.5663     1.4857     0.2788 H       
  35 H35           -5.4040     3.8461    -0.7804 H       
  36 H36           -5.7668     3.7758     0.9608 H       
  37 H37           -4.3072     5.7837    -1.7439 H       
  38 H38           -3.8822     8.2013    -1.5621 H       
  39 H39           -4.7537     8.0326     2.6184 H       
  40 H40           -5.1824     5.6163     2.4271 H       
  41 H41           -2.1336     9.9066     2.5421 H       
  42 H42           -3.2961     9.9462     3.8894 H       
  43 H43           -3.1886     8.5062     2.8487 H       
  44 H44           -1.2501    -2.7022    -0.2671 H       
  45 H45           -1.4696    -1.8047    -1.7884 H       
  46 H46            0.1529    -1.9604    -1.0731 H       
  47 H47           -2.9914    11.9124     1.4448 H       
  48 H48           -4.7386    12.1248     1.1791 H       
  49 H49           -4.0522    14.0686     4.1813 H       
  50 H50           -2.9477    13.9556     2.7900 H       
  51 H51           -4.6948    14.1679     2.5244 H       
  52 H52           -7.4737     9.6617     2.0649 H       
@<TRIPOS>BOND
   1    1    2 ar
   2    1   21 1
   3    1    6 ar
   4    2    3 ar
   5    2   28 1
   6    3    4 ar
   7    3    7 1
   8    4    5 ar
   9    4   29 1
  10    5    6 ar
  11    5    8 1
  12    6   30 1
  13    7   31 1
  14    7   32 1
  15    7   33 1
  16    8    9 am
  17    8   34 1
  18    9   10 1
  19    9   11 2
  20   10   12 1
  21   10   35 1
  22   10   36 1
  23   12   13 ar
  24   12   17 ar
  25   13   14 ar
  26   13   37 1
  27   14   15 ar
  28   14   38 1
  29   15   16 ar
  30   15   18 1
  31   16   17 ar
  32   16   39 1
  33   17   40 1
  34   18   19 1
  35   19   20 1
  36   19   22 1
  37   19   25 1
  38   20   41 1
  39   20   42 1
  40   20   43 1
  41   21   44 1
  42   21   45 1
  43   21   46 1
  44   22   23 1
  45   22   47 1
  46   22   48 1
  47   23   24 1
  48   24   49 1
  49   24   50 1
  50   24   51 1
  51   25   26 2
  52   25   27 1
  53   27   52 1

#	End of record

