#	Name: ASD01200357
#	Creating user name:	WinNT
#	Creation time:	15. 06. 2019 19:09

#	Modifying user name:	WinNT
#	Modification time:	15. 06. 2019 19:09

#	Program:	/corina/corina34_cracker 3.40 0067  02.08.2006

@<TRIPOS>MOLECULE
ASD01200357
  50   53    0    0    0
SMALL
NO_CHARGES


@<TRIPOS>ATOM
   1 C1            -0.3400     1.3915    -0.3376 C.ar    
   2 C2            -0.2302     0.0157    -0.2434 C.ar    
   3 C3             1.0162    -0.5826    -0.1823 C.ar    
   4 C4             2.1580     0.1904    -0.2144 C.ar    
   5 C5             2.0543     1.5795    -0.3094 C.ar    
   6 C6             0.7941     2.1765    -0.3711 C.ar    
   7 C7             3.2735     2.4142    -0.3439 C.2     
   8 O8             4.3697     1.8915    -0.2895 O.2     
   9 N9             3.1700     3.7549    -0.4356 N.am    
  10 C10            4.3154     4.5390    -0.4680 C.2     
  11 S11            1.1447    -2.3358    -0.0624 S.o2    
  12 N12            1.2070    -2.9295    -1.6071 N.am    
  13 O13            2.4110    -2.6063     0.5228 O.2     
  14 O14           -0.0814    -2.7910     0.4932 O.2     
  15 S15            5.9670     3.9316    -0.3988 S.3     
  16 C16            6.5783     5.5813    -0.4981 C.2     
  17 C17            5.5260     6.4160    -0.5721 C.2     
  18 N18            4.3359     5.8323    -0.5595 N.2     
  19 C19            5.6864     7.8874    -0.6674 C.ar    
  20 C20            2.2443    -2.5463    -2.4616 C.ar    
  21 C21            1.9996    -2.3684    -3.8182 C.ar    
  22 C22            3.0281    -1.9894    -4.6601 C.ar    
  23 C23            4.2989    -1.7875    -4.1538 C.ar    
  24 C24            4.5452    -1.9638    -2.8044 C.ar    
  25 C25            3.5209    -2.3368    -1.9564 C.ar    
  26 Cl26           0.4044    -2.6224    -4.4543 Cl      
  27 C27            4.5637     8.7101    -0.7418 C.ar    
  28 C28            4.7190    10.0786    -0.8299 C.ar    
  29 C29            5.9858    10.6340    -0.8445 C.ar    
  30 C30            7.1036     9.8224    -0.7709 C.ar    
  31 C31            6.9603     8.4530    -0.6772 C.ar    
  32 C32            6.1488    12.1291    -0.9413 C.3     
  33 H33           -1.3156     1.8518    -0.3895 H       
  34 H34           -1.1211    -0.5942    -0.2171 H       
  35 H35            3.1301    -0.2777    -0.1659 H       
  36 H36            0.7070     3.2505    -0.4450 H       
  37 H37            2.2953     4.1719    -0.4789 H       
  38 H38            0.5235    -3.5432    -1.9188 H       
  39 H39            7.6185     5.8721    -0.4991 H       
  40 H40            2.8391    -1.8512    -5.7144 H       
  41 H41            5.1010    -1.4917    -4.8137 H       
  42 H42            5.5390    -1.8052    -2.4125 H       
  43 H43            3.7145    -2.4743    -0.9028 H       
  44 H44            3.5742     8.2775    -0.7309 H       
  45 H45            3.8499    10.7170    -0.8879 H       
  46 H46            8.0902    10.2615    -0.7831 H       
  47 H47            7.8337     7.8203    -0.6198 H       
  48 H48            6.1699    12.5579     0.0605 H       
  49 H49            7.0818    12.3603    -1.4552 H       
  50 H50            5.3126    12.5503    -1.4993 H       
@<TRIPOS>BOND
   1    1    2 ar
   2    1    6 ar
   3    1   33 1
   4    2    3 ar
   5    2   34 1
   6    3    4 ar
   7    3   11 1
   8    4    5 ar
   9    4   35 1
  10    5    6 ar
  11    5    7 1
  12    6   36 1
  13    7    8 2
  14    7    9 am
  15    9   10 1
  16    9   37 1
  17   10   15 1
  18   10   18 2
  19   11   12 am
  20   11   13 2
  21   11   14 2
  22   12   20 1
  23   12   38 1
  24   15   16 1
  25   16   17 2
  26   16   39 1
  27   17   18 1
  28   17   19 1
  29   19   27 ar
  30   19   31 ar
  31   20   21 ar
  32   20   25 ar
  33   21   22 ar
  34   21   26 1
  35   22   23 ar
  36   22   40 1
  37   23   24 ar
  38   23   41 1
  39   24   25 ar
  40   24   42 1
  41   25   43 1
  42   27   28 ar
  43   27   44 1
  44   28   29 ar
  45   28   45 1
  46   29   30 ar
  47   29   32 1
  48   30   31 ar
  49   30   46 1
  50   31   47 1
  51   32   48 1
  52   32   49 1
  53   32   50 1

#	End of record

