#	Name: ASD01881710
#	Creating user name:	WinNT
#	Creation time:	15. 06. 2019 19:43

#	Modifying user name:	WinNT
#	Modification time:	15. 06. 2019 19:43

#	Program:	/corina/corina34_cracker 3.40 0067  02.08.2006

@<TRIPOS>MOLECULE
ASD01881710
  67   70    0    0    0
SMALL
NO_CHARGES


@<TRIPOS>ATOM
   1 N1             1.3672     1.9191     0.0712 N.am    
   2 C2             0.3022     1.7710     1.0423 C.3     
   3 C3             0.8557     1.1057     2.3255 C.3     
   4 N4             1.1774    -0.2474     2.0683 N.3     
   5 C5             2.2377    -0.4877     1.0908 C.3     
   6 C6             1.6332    -0.5281    -0.2953 C.3     
   7 C7             1.6853     0.8751    -0.9227 C.3     
   8 C8             2.0915     3.0557     0.0718 C.2     
   9 O9             1.8460     3.9322     0.8768 O.2     
  10 O10            3.0871     3.2200    -0.8195 O.3     
  11 C11            1.4396    -0.9730     3.3184 C.3     
  12 C12            1.3755    -2.4791     3.0570 C.3     
  13 C13            1.6636    -3.2349     4.3557 C.3     
  14 O14            0.0725    -2.8254     2.5834 O.3     
  15 O15            1.7189    -4.6376     4.0883 O.3     
  16 N16            2.7084    -8.1575     8.1670 N.pl3   
  17 N17            2.6532    -9.3203     7.3844 N.2     
  18 N18            2.4104    -9.0024     6.1618 N.2     
  19 C19            2.2906    -7.6652     6.0403 C.ar    
  20 C20            2.4780    -7.1019     7.3144 C.ar    
  21 C21            2.0339    -6.8222     4.9503 C.ar    
  22 C22            1.9682    -5.4579     5.1439 C.ar    
  23 C23            2.1558    -4.9145     6.4125 C.ar    
  24 C24            2.4082    -5.7238     7.4842 C.ar    
  25 C25            2.9562    -8.0820     9.6089 C.3     
  26 C26            4.4598    -7.9550     9.8620 C.3     
  27 C27            4.9177    -7.7443    11.3066 C.3     
  28 C28            5.1471    -9.0923    10.6203 C.3     
  29 Br29           1.7781    -7.5510     3.2242 Br      
  30 C30            3.8250     4.4691    -0.7608 C.3     
  31 C31            4.4778     4.6115     0.6156 C.3     
  32 C32            4.9078     4.4731    -1.8417 C.3     
  33 C33            2.8669     5.6389    -0.9943 C.3     
  34 H34           -0.1032     2.7524     1.2885 H       
  35 H35           -0.4875     1.1480     0.6224 H       
  36 H36            1.7515     1.6352     2.6500 H       
  37 H37            0.1030     1.1554     3.1123 H       
  38 H38            2.9721     0.3159     1.1448 H       
  39 H39            2.7218    -1.4405     1.3051 H       
  40 H40            2.1964    -1.2245    -0.9166 H       
  41 H41            0.5964    -0.8580    -0.2296 H       
  42 H42            0.9648     0.9281    -1.7389 H       
  43 H43            2.6852     1.0522    -1.3187 H       
  44 H44            2.4301    -0.7105     3.6900 H       
  45 H45            0.6892    -0.7008     4.0607 H       
  46 H46            2.1185    -2.7496     2.3067 H       
  47 H47            2.6189    -2.9049     4.7639 H       
  48 H48            0.8713    -3.0334     5.0767 H       
  49 H49           -0.6401    -2.6125     3.2014 H       
  50 H50            2.1021    -3.8447     6.5502 H       
  51 H51            2.5525    -5.2927     8.4639 H       
  52 H52            2.4438    -7.2125    10.0206 H       
  53 H53            2.5819    -8.9858    10.0897 H       
  54 H54            5.0285    -7.4577     9.0762 H       
  55 H55            5.7878    -7.1088    11.4712 H       
  56 H56            4.1477    -7.6962    12.0767 H       
  57 H57            4.5281    -9.9311    10.9388 H       
  58 H58            6.1682    -9.3437    10.3333 H       
  59 H59            5.1604     3.7781     0.7820 H       
  60 H60            5.0318     5.5492     0.6597 H       
  61 H61            3.7064     4.6087     1.3857 H       
  62 H62            4.4427     4.3716    -2.8223 H       
  63 H63            5.4618     5.4108    -1.7976 H       
  64 H64            5.5904     3.6397    -1.6753 H       
  65 H65            2.0955     5.6361    -0.2243 H       
  66 H66            3.4209     6.5766    -0.9502 H       
  67 H67            2.4018     5.5375    -1.9749 H       
@<TRIPOS>BOND
   1    1    2 1
   2    1    7 1
   3    1    8 am
   4    2    3 1
   5    2   34 1
   6    2   35 1
   7    3    4 1
   8    3   36 1
   9    3   37 1
  10    4    5 1
  11    4   11 1
  12    5    6 1
  13    5   38 1
  14    5   39 1
  15    6    7 1
  16    6   40 1
  17    6   41 1
  18    7   42 1
  19    7   43 1
  20    8    9 2
  21    8   10 1
  22   10   30 1
  23   11   12 1
  24   11   44 1
  25   11   45 1
  26   12   13 1
  27   12   14 1
  28   12   46 1
  29   13   15 1
  30   13   47 1
  31   13   48 1
  32   14   49 1
  33   15   22 1
  34   16   17 1
  35   16   20 1
  36   16   25 1
  37   17   18 2
  38   18   19 1
  39   19   20 ar
  40   19   21 ar
  41   20   24 ar
  42   21   22 ar
  43   21   29 1
  44   22   23 ar
  45   23   24 ar
  46   23   50 1
  47   24   51 1
  48   25   26 1
  49   25   52 1
  50   25   53 1
  51   26   27 1
  52   26   28 1
  53   26   54 1
  54   27   28 1
  55   27   55 1
  56   27   56 1
  57   28   57 1
  58   28   58 1
  59   30   31 1
  60   30   33 1
  61   30   32 1
  62   31   59 1
  63   31   60 1
  64   31   61 1
  65   32   62 1
  66   32   63 1
  67   32   64 1
  68   33   65 1
  69   33   66 1
  70   33   67 1

#	End of record

