#	Name: ASD05513020
#	Creating user name:	WinNT
#	Creation time:	15. 06. 2019 21:01

#	Modifying user name:	WinNT
#	Modification time:	15. 06. 2019 21:01

#	Program:	/corina/corina34_cracker 3.40 0067  02.08.2006

@<TRIPOS>MOLECULE
ASD05513020
  30   32    0    0    0
SMALL
NO_CHARGES


@<TRIPOS>ATOM
   1 C1            -0.1881     1.1314    -0.9098 C.2     
   2 C2             0.0021    -0.0041     0.0020 C.2     
   3 C3             1.1412    -0.7444    -0.0622 C.2     
   4 C4             2.5216    -0.2571    -0.2597 C.ar    
   5 C5             3.3489    -1.3900    -0.2544 C.ar    
   6 N6             2.5724    -2.5295    -0.0683 N.am    
   7 C7             1.2702    -2.2211     0.0574 C.2     
   8 C8             3.0688     1.0138    -0.4310 C.ar    
   9 C9             4.4334     1.1545    -0.5962 C.ar    
  10 C10            5.2514     0.0375    -0.5913 C.ar    
  11 C11            4.7185    -1.2258    -0.4222 C.ar    
  12 O12            0.3609    -3.0082     0.2301 O.2     
  13 O13            0.5991     1.3210    -1.8175 O.2     
  14 C14           -1.3393     2.0402    -0.7281 C.ar    
  15 Cl15           2.0406     2.4126    -0.4374 Cl      
  16 C16           -1.5233     3.1214    -1.5936 C.ar    
  17 C17           -2.6001     3.9651    -1.4185 C.ar    
  18 C18           -3.4970     3.7430    -0.3880 C.ar    
  19 C19           -3.3209     2.6738     0.4732 C.ar    
  20 C20           -2.2519     1.8187     0.3063 C.ar    
  21 H21           -0.7626    -0.2512     0.7235 H       
  22 H22            2.9264    -3.4317    -0.0303 H       
  23 H23            4.8623     2.1367    -0.7297 H       
  24 H24            6.3171     0.1550    -0.7213 H       
  25 H25            5.3683    -2.0884    -0.4204 H       
  26 H26           -0.8238     3.2962    -2.3976 H       
  27 H27           -2.7436     4.8012    -2.0868 H       
  28 H28           -4.3381     4.4072    -0.2551 H       
  29 H29           -4.0245     2.5066     1.2753 H       
  30 H30           -2.1156     0.9849     0.9790 H       
@<TRIPOS>BOND
   1    1    2 1
   2    1   13 2
   3    1   14 1
   4    2    3 2
   5    2   21 1
   6    3    4 1
   7    3    7 1
   8    4    5 ar
   9    4    8 ar
  10    5    6 1
  11    5   11 ar
  12    6    7 am
  13    6   22 1
  14    7   12 2
  15    8    9 ar
  16    8   15 1
  17    9   10 ar
  18    9   23 1
  19   10   11 ar
  20   10   24 1
  21   11   25 1
  22   14   16 ar
  23   14   20 ar
  24   16   17 ar
  25   16   26 1
  26   17   18 ar
  27   17   27 1
  28   18   19 ar
  29   18   28 1
  30   19   20 ar
  31   19   29 1
  32   20   30 1

#	End of record

