#	Name: ASD03092444
#	Creating user name:	WinNT
#	Creation time:	15. 06. 2019 20:32

#	Modifying user name:	WinNT
#	Modification time:	15. 06. 2019 20:32

#	Program:	/corina/corina34_cracker 3.40 0067  02.08.2006

@<TRIPOS>MOLECULE
ASD03092444
  59   62    0    0    0
SMALL
NO_CHARGES


@<TRIPOS>ATOM
   1 C1            -0.7624     1.2067    -0.2071 C.2     
   2 C2            -0.9223    -0.1498    -0.2467 C.2     
   3 C3             0.2656    -0.8346    -0.3449 C.2     
   4 C4             1.3614    -0.0676    -0.3846 C.2     
   5 S5             0.9519     1.5864    -0.2991 S.3     
   6 C6            -1.8468     2.1883    -0.1100 C.2     
   7 O7            -3.0036     1.8139    -0.0574 O.2     
   8 N8            -1.5627     3.5054    -0.0790 N.am    
   9 C9            -2.2670    -0.8276    -0.1876 C.3     
  10 C10           -2.6464     4.4864     0.0181 C.3     
  11 S11           -1.1480     8.1235     0.7421 S.3     
  12 C12           -1.2616     7.7265    -0.9167 C.2     
  13 N13           -1.7559     6.5338    -1.0618 N.2     
  14 C14           -2.0654     5.8768     0.0348 C.2     
  15 C15           -1.8185     6.5532     1.1761 C.2     
  16 C16           -2.9417     6.3637     4.7548 C.ar    
  17 C17           -2.7311     6.8614     3.4871 C.ar    
  18 C18           -2.0661     6.0636     2.5463 C.ar    
  19 C19           -1.6432     4.7878     2.9428 C.ar    
  20 C20           -1.8958     4.3713     4.2319 C.ar    
  21 N21           -2.5264     5.1553     5.0867 N.ar    
  22 C22           -1.4466     3.0017     4.6717 C.3     
  23 C23           -3.6500     7.2132     5.7784 C.3     
  24 N24           -0.8820     8.5565    -1.9558 N.3     
  25 C25           -0.3634     9.8345    -1.4467 C.3     
  26 C26           -0.0120    10.7432    -2.6277 C.3     
  27 O27            0.9286    10.0754    -3.4731 O.3     
  28 C28            0.4559     8.8274    -3.9871 C.3     
  29 C29            0.1092     7.8993    -2.8199 C.3     
  30 C30            1.5458     8.1829    -4.8460 C.3     
  31 C31            0.6030    12.0436    -2.1064 C.3     
  32 H32            0.3111    -1.9129    -0.3867 H       
  33 H33            2.3704    -0.4453    -0.4607 H       
  34 H34           -0.6407     3.8038    -0.1209 H       
  35 H35           -2.6551    -0.9536    -1.1983 H       
  36 H36           -2.1613    -1.8039     0.2854 H       
  37 H37           -2.9572    -0.2155     0.3930 H       
  38 H38           -3.3104     4.3804    -0.8398 H       
  39 H39           -3.2090     4.3167     0.9362 H       
  40 H40           -3.0739     7.8507     3.2225 H       
  41 H41           -1.1275     4.1408     2.2487 H       
  42 H42           -0.4383     3.0641     5.0810 H       
  43 H43           -2.1262     2.6244     5.4358 H       
  44 H44           -1.4504     2.3260     3.8164 H       
  45 H45           -4.7230     7.0300     5.7229 H       
  46 H46           -3.2889     6.9583     6.7747 H       
  47 H47           -3.4503     8.2659     5.5778 H       
  48 H48           -1.1228    10.3159    -0.8304 H       
  49 H49            0.5297     9.6527    -0.8490 H       
  50 H50           -0.9151    10.9686    -3.1948 H       
  51 H51           -0.4336     8.9971    -4.5938 H       
  52 H52            1.0099     7.6865    -2.2442 H       
  53 H53           -0.3052     6.9680    -3.2061 H       
  54 H54            2.4340     8.0119    -4.2378 H       
  55 H55            1.1849     7.2318    -5.2375 H       
  56 H56            1.7949     8.8458    -5.6746 H       
  57 H57            1.5070    11.8170    -1.5411 H       
  58 H58            0.8530    12.6901    -2.9476 H       
  59 H59           -0.1129    12.5501    -1.4591 H       
@<TRIPOS>BOND
   1    1    2 2
   2    1    5 1
   3    1    6 1
   4    2    3 1
   5    2    9 1
   6    3    4 2
   7    3   32 1
   8    4    5 1
   9    4   33 1
  10    6    7 2
  11    6    8 am
  12    8   10 1
  13    8   34 1
  14    9   35 1
  15    9   36 1
  16    9   37 1
  17   10   14 1
  18   10   38 1
  19   10   39 1
  20   11   12 1
  21   11   15 1
  22   12   13 2
  23   12   24 1
  24   13   14 1
  25   14   15 2
  26   15   18 1
  27   16   17 ar
  28   16   21 ar
  29   16   23 1
  30   17   18 ar
  31   17   40 1
  32   18   19 ar
  33   19   20 ar
  34   19   41 1
  35   20   21 ar
  36   20   22 1
  37   22   42 1
  38   22   43 1
  39   22   44 1
  40   23   45 1
  41   23   46 1
  42   23   47 1
  43   24   25 1
  44   24   29 1
  45   25   26 1
  46   25   48 1
  47   25   49 1
  48   26   27 1
  49   26   31 1
  50   26   50 1
  51   27   28 1
  52   28   29 1
  53   28   30 1
  54   28   51 1
  55   29   52 1
  56   29   53 1
  57   30   54 1
  58   30   55 1
  59   30   56 1
  60   31   57 1
  61   31   58 1
  62   31   59 1

#	End of record

