#	Name: ASD03091835
#	Creating user name:	WinNT
#	Creation time:	15. 06. 2019 20:31

#	Modifying user name:	WinNT
#	Modification time:	15. 06. 2019 20:31

#	Program:	/corina/corina34_cracker 3.40 0067  02.08.2006

@<TRIPOS>MOLECULE
ASD03091835
  50   54    0    0    0
SMALL
NO_CHARGES


@<TRIPOS>ATOM
   1 N1            -0.0165     1.3641     0.0095 N.pl3   
   2 C2             0.0021    -0.0041     0.0020 C.2     
   3 C3             1.2698    -0.4448    -0.0124 C.2     
   4 C4             2.1340     0.7385    -0.0143 C.ar    
   5 C5             3.5155     0.9285    -0.0265 C.ar    
   6 C6             4.0261     2.2193    -0.0244 C.ar    
   7 C7             3.1588     3.3171    -0.0098 C.ar    
   8 C8             1.8062     3.1361     0.0026 C.ar    
   9 C9             1.2714     1.8506    -0.0001 C.ar    
  10 C10            5.4935     2.4351    -0.0373 C.ar    
  11 C11            6.0119     3.7342    -0.0352 C.ar    
  12 C12            7.3877     3.8834    -0.0471 C.ar    
  13 C13            8.1712     2.7307    -0.0603 C.ar    
  14 N14            7.5942     1.5397    -0.0612 N.ar    
  15 N15            6.3188     1.3970    -0.0452 N.ar    
  16 O16            9.5245     2.8296    -0.0726 O.3     
  17 C17           12.5782     0.7080    -0.6125 C.3     
  18 C18           11.5836     1.8418    -0.8213 C.3     
  19 C19           10.2706     1.5966    -0.0859 C.3     
  20 C20           10.5032     1.1638     1.3573 C.3     
  21 C21           11.5641     0.0830     1.4820 C.3     
  22 C22           11.0805    -1.2509     0.9179 C.3     
  23 C23           10.9102    -1.1970    -0.5953 C.3     
  24 C24           12.1162    -0.5771    -1.2894 C.3     
  25 N25           12.8050     0.4693     0.8119 N.3     
  26 C26           13.4936     1.5728     1.4759 C.3     
  27 H27           -0.8181     1.9101     0.0165 H       
  28 H28           -0.8738    -0.6359     0.0075 H       
  29 H29            1.5917    -1.4757    -0.0207 H       
  30 H30            4.1822     0.0789    -0.0371 H       
  31 H31            3.5640     4.3182    -0.0079 H       
  32 H32            1.1486     3.9928     0.0142 H       
  33 H33            5.3588     4.5942    -0.0251 H       
  34 H34            7.8407     4.8638    -0.0465 H       
  35 H35           13.5379     1.0057    -1.0636 H       
  36 H36           12.0180     2.7883    -0.4910 H       
  37 H37           11.3739     1.9341    -1.8961 H       
  38 H38            9.6654     0.8654    -0.6151 H       
  39 H39           10.7867     2.0356     1.9559 H       
  40 H40            9.5571     0.7834     1.7680 H       
  41 H41           11.7870    -0.0623     2.5508 H       
  42 H42           11.8039    -2.0311     1.1748 H       
  43 H43           10.1228    -1.5081     1.3818 H       
  44 H44           10.8112    -2.2386    -0.9594 H       
  45 H45            9.9913    -0.6939    -0.8715 H       
  46 H46           11.8613    -0.3610    -2.3329 H       
  47 H47           12.9421    -1.2978    -1.2890 H       
  48 H48           12.8974     2.4807     1.3845 H       
  49 H49           13.6313     1.3333     2.5303 H       
  50 H50           14.4660     1.7281     1.0086 H       
@<TRIPOS>BOND
   1    1    2 1
   2    1    9 1
   3    1   27 1
   4    2    3 2
   5    2   28 1
   6    3    4 1
   7    3   29 1
   8    4    5 ar
   9    4    9 ar
  10    5    6 ar
  11    5   30 1
  12    6    7 ar
  13    6   10 1
  14    7    8 ar
  15    7   31 1
  16    8    9 ar
  17    8   32 1
  18   10   11 ar
  19   10   15 ar
  20   11   12 ar
  21   11   33 1
  22   12   13 ar
  23   12   34 1
  24   13   14 ar
  25   13   16 1
  26   14   15 ar
  27   16   19 1
  28   17   18 1
  29   17   24 1
  30   17   25 1
  31   17   35 1
  32   18   19 1
  33   18   36 1
  34   18   37 1
  35   19   20 1
  36   19   38 1
  37   20   21 1
  38   20   39 1
  39   20   40 1
  40   21   22 1
  41   21   25 1
  42   21   41 1
  43   22   23 1
  44   22   42 1
  45   22   43 1
  46   23   24 1
  47   23   44 1
  48   23   45 1
  49   24   46 1
  50   24   47 1
  51   25   26 1
  52   26   48 1
  53   26   49 1
  54   26   50 1

#	End of record

