#	Name: ASD01028218
#	Creating user name:	WinNT
#	Creation time:	15. 06. 2019 18:56

#	Modifying user name:	WinNT
#	Modification time:	15. 06. 2019 18:56

#	Program:	/corina/corina34_cracker 3.40 0067  02.08.2006

@<TRIPOS>MOLECULE
ASD01028218
  47   51    0    0    0
SMALL
NO_CHARGES


@<TRIPOS>ATOM
   1 C1            -0.0165     1.3658     0.0096 C.ar    
   2 C2             0.0021    -0.0041     0.0020 C.ar    
   3 C3             1.1871     2.0786     0.0019 C.ar    
   4 N4             2.3453     1.4655    -0.0129 N.ar    
   5 C5             2.4265     0.1343    -0.0208 C.ar    
   6 C6             1.2509    -0.6527    -0.0134 C.ar    
   7 C7             3.6823    -0.5215    -0.0362 C.ar    
   8 C8             3.6925    -1.9066    -0.0433 C.ar    
   9 C9             2.4925    -2.6050    -0.0352 C.ar    
  10 N10            1.3341    -1.9873    -0.0204 N.ar    
  11 N11            4.8661     0.2018    -0.0444 N.pl3   
  12 C12            6.1526    -0.4989    -0.0603 C.3     
  13 C13            7.2733     0.5086    -0.0666 C.2     
  14 N14            7.8828     1.0416     1.0277 N.pl3   
  15 C15            8.8356     1.9046     0.5443 C.2     
  16 N16            8.7616     1.8560    -0.7759 N.2     
  17 N17            7.8420     1.0264    -1.1245 N.2     
  18 C18            7.7164     0.8739     2.3695 C.2     
  19 C19            8.4933     1.5608     3.2506 C.2     
  20 C20            9.4815     2.4562     2.7773 C.2     
  21 C21            9.6504     2.6248     1.4407 C.2     
  22 C22            8.3034     1.3711     4.7102 C.ar    
  23 C23            9.3175     0.8038     5.4789 C.ar    
  24 C24            7.1128     1.7649     5.3171 C.ar    
  25 C25            6.9401     1.5866     6.6751 C.ar    
  26 C26            7.9461     1.0181     7.4343 C.ar    
  27 C27            9.1349     0.6294     6.8379 C.ar    
  28 O28           -1.2013     2.0306     0.0188 O.3     
  29 C29           -1.1440     3.4584     0.0263 C.3     
  30 F30           10.1144     0.0740     7.5845 F       
  31 H31           -0.9171    -0.5710     0.0081 H       
  32 H32            1.1613     3.1582     0.0079 H       
  33 H33            4.6307    -2.4414    -0.0554 H       
  34 H34            2.5125    -3.6848    -0.0412 H       
  35 H35            4.8421     1.1715    -0.0396 H       
  36 H36            6.2346    -1.1281     0.8259 H       
  37 H37            6.2171    -1.1197    -0.9539 H       
  38 H38            6.9633     0.1920     2.7360 H       
  39 H39           10.0983     3.0025     3.4756 H       
  40 H40           10.4017     3.3052     1.0678 H       
  41 H41           10.2439     0.5005     5.0140 H       
  42 H42            6.3259     2.2095     4.7259 H       
  43 H43            6.0172     1.8923     7.1456 H       
  44 H44            7.8067     0.8809     8.4964 H       
  45 H45           -0.6118     3.7960     0.9156 H       
  46 H46           -0.6203     3.8057    -0.8643 H       
  47 H47           -2.1563     3.8626     0.0332 H       
@<TRIPOS>BOND
   1    1    2 ar
   2    1    3 ar
   3    1   28 1
   4    2    6 ar
   5    2   31 1
   6    3    4 ar
   7    3   32 1
   8    4    5 ar
   9    5    6 ar
  10    5    7 ar
  11    6   10 ar
  12    7    8 ar
  13    7   11 1
  14    8    9 ar
  15    8   33 1
  16    9   10 ar
  17    9   34 1
  18   11   12 1
  19   11   35 1
  20   12   13 1
  21   12   36 1
  22   12   37 1
  23   13   14 1
  24   13   17 2
  25   14   15 1
  26   14   18 1
  27   15   16 2
  28   15   21 1
  29   16   17 1
  30   18   19 2
  31   18   38 1
  32   19   20 1
  33   19   22 1
  34   20   21 2
  35   20   39 1
  36   21   40 1
  37   22   23 ar
  38   22   24 ar
  39   23   27 ar
  40   23   41 1
  41   24   25 ar
  42   24   42 1
  43   25   26 ar
  44   25   43 1
  45   26   27 ar
  46   26   44 1
  47   27   30 1
  48   28   29 1
  49   29   45 1
  50   29   46 1
  51   29   47 1

#	End of record

