#	Name: ASD01810360
#	Creating user name:	WinNT
#	Creation time:	15. 06. 2019 19:24

#	Modifying user name:	WinNT
#	Modification time:	15. 06. 2019 19:24

#	Program:	/corina/corina34_cracker 3.40 0067  02.08.2006

@<TRIPOS>MOLECULE
ASD01810360
  37   39    0    0    0
SMALL
NO_CHARGES


@<TRIPOS>ATOM
   1 C1            -0.0173     1.4248     0.0099 C.3     
   2 O2             0.0021    -0.0041     0.0020 O.3     
   3 C3             0.6037    -0.6050    -1.0520 C.ar    
   4 C4             1.9635    -0.9066    -1.0089 C.ar    
   5 C5             2.5889    -1.5314    -2.1050 C.ar    
   6 C6             1.8857    -1.8509    -3.2189 C.ar    
   7 C7             0.5094    -1.5600    -3.2967 C.ar    
   8 C8            -0.1403    -0.9376    -2.2028 C.ar    
   9 C9            -1.5122    -0.6506    -2.2873 C.ar    
  10 C10           -2.2004    -0.9735    -3.4174 C.ar    
  11 C11           -1.5622    -1.5855    -4.4934 C.ar    
  12 C12           -0.2341    -1.8838    -4.4432 C.ar    
  13 C13            2.5787    -2.5192    -4.3784 C.3     
  14 C14            3.0016    -1.4756    -5.3800 C.ar    
  15 C15            4.2483    -0.8759    -5.2846 C.ar    
  16 C16            4.5953     0.0788    -6.2276 C.ar    
  17 C17            3.6926     0.3995    -7.2257 C.ar    
  18 N18            2.5144    -0.1923    -7.2851 N.ar    
  19 C19            2.1541    -1.1088    -6.4079 C.ar    
  20 Cl20           4.1140     1.5939    -8.4129 Cl      
  21 C21            2.7503    -0.5699     0.1884 C.2     
  22 O22            2.2138    -0.0302     1.1361 O.2     
  23 O23            4.0658    -0.8600     0.2339 O.3     
  24 H24            1.0053     1.8021     0.0021 H       
  25 H25           -0.5445     1.7859    -0.8732 H       
  26 H26           -0.5275     1.7763     0.9067 H       
  27 H27            3.6436    -1.7588    -2.0576 H       
  28 H28           -2.0194    -0.1765    -1.4599 H       
  29 H29           -3.2557    -0.7521    -3.4799 H       
  30 H30           -2.1297    -1.8320    -5.3786 H       
  31 H31            0.2473    -2.3581    -5.2856 H       
  32 H32            3.4574    -3.0536    -4.0174 H       
  33 H33            1.8952    -3.2229    -4.8535 H       
  34 H34            4.9326    -1.1462    -4.4940 H       
  35 H35            5.5580     0.5664    -6.1835 H       
  36 H36            1.1817    -1.5716    -6.4887 H       
  37 H37            4.5406    -0.6198     1.0413 H       
@<TRIPOS>BOND
   1    1    2 1
   2    1   24 1
   3    1   25 1
   4    1   26 1
   5    2    3 1
   6    3    4 ar
   7    3    8 ar
   8    4    5 ar
   9    4   21 1
  10    5    6 ar
  11    5   27 1
  12    6    7 ar
  13    6   13 1
  14    7    8 ar
  15    7   12 ar
  16    8    9 ar
  17    9   10 ar
  18    9   28 1
  19   10   11 ar
  20   10   29 1
  21   11   12 ar
  22   11   30 1
  23   12   31 1
  24   13   14 1
  25   13   32 1
  26   13   33 1
  27   14   15 ar
  28   14   19 ar
  29   15   16 ar
  30   15   34 1
  31   16   17 ar
  32   16   35 1
  33   17   18 ar
  34   17   20 1
  35   18   19 ar
  36   19   36 1
  37   21   22 2
  38   21   23 1
  39   23   37 1

#	End of record

