#	Name: ASD04560170
#	Creating user name:	WinNT
#	Creation time:	15. 06. 2019 20:49

#	Modifying user name:	WinNT
#	Modification time:	15. 06. 2019 20:49

#	Program:	/corina/corina34_cracker 3.40 0067  02.08.2006

@<TRIPOS>MOLECULE
ASD04560170
  44   46    0    0    0
SMALL
NO_CHARGES


@<TRIPOS>ATOM
   1 C1            -0.0174     1.3728     0.0245 C.ar    
   2 C2             0.0010    -0.0041     0.0241 C.ar    
   3 C3             1.2127    -0.6849     0.0141 C.ar    
   4 C4             2.4104     0.0204     0.0044 C.ar    
   5 C5             2.4007     1.3973     0.0043 C.ar    
   6 C6             1.1846     2.0856     0.0143 C.ar    
   7 C7             1.1696     3.5613     0.0137 C.2     
   8 O8             2.2163     4.1800     0.0044 O.2     
   9 N9            -0.0044     4.2233     0.0234 N.am    
  10 C10           -0.0203     5.6182     0.1357 C.ar    
  11 C11           -0.9893     6.3584    -0.5289 C.ar    
  12 C12            0.9117     7.6404     1.0265 C.ar    
  13 C13            0.9295     6.2638     0.9166 C.ar    
  14 O14            1.2265    -2.0420     0.0142 O.3     
  15 C15           -1.0034     7.7348    -0.4163 C.ar    
  16 C16           -0.0522     8.3769     0.3587 C.ar    
  17 F17           -0.0678     9.7234     0.4675 F       
  18 C18            2.5063    -2.6778     0.0037 C.3     
  19 C19            2.3240    -4.1737     0.0054 C.ar    
  20 C20            1.0549    -4.7155     0.0161 C.ar    
  21 C21            0.8862    -6.0886     0.0183 C.ar    
  22 C22            1.9877    -6.9263     0.0097 C.ar    
  23 C23            3.2610    -6.3956    -0.0014 C.ar    
  24 C24            3.4369    -5.0126    -0.0095 C.ar    
  25 B25            4.8834    -4.4024    -0.0222 Du      
  26 O26            6.0155    -5.2595    -0.0255 O.3     
  27 O27            5.0595    -2.9934    -0.0303 O.3     
  28 H28           -0.9593     1.9010     0.0281 H       
  29 H29           -0.9275    -0.5558     0.0319 H       
  30 H30            3.3499    -0.5123    -0.0026 H       
  31 H31            3.3318     1.9447    -0.0029 H       
  32 H32           -0.8383     3.7329    -0.0476 H       
  33 H33           -1.7311     5.8580    -1.1337 H       
  34 H34            1.6502     8.1428     1.6337 H       
  35 H35            1.6812     5.6897     1.4378 H       
  36 H36           -1.7566     8.3108    -0.9332 H       
  37 H37            3.0528    -2.3794    -0.8910 H       
  38 H38            3.0677    -2.3791     0.8889 H       
  39 H39            0.1918    -4.0663     0.0232 H       
  40 H40           -0.1089    -6.5084     0.0270 H       
  41 H41            1.8503    -7.9975     0.0122 H       
  42 H42            4.1200    -7.0502    -0.0077 H       
  43 H43            6.8623    -4.7926    -0.0335 H       
  44 H44            5.9849    -2.7127    -0.0379 H       
@<TRIPOS>BOND
   1    1    2 ar
   2    1    6 ar
   3    1   28 1
   4    2    3 ar
   5    2   29 1
   6    3    4 ar
   7    3   14 1
   8    4    5 ar
   9    4   30 1
  10    5    6 ar
  11    5   31 1
  12    6    7 1
  13    7    8 2
  14    7    9 am
  15    9   10 1
  16    9   32 1
  17   10   11 ar
  18   10   13 ar
  19   11   15 ar
  20   11   33 1
  21   12   13 ar
  22   12   16 ar
  23   12   34 1
  24   13   35 1
  25   14   18 1
  26   15   16 ar
  27   15   36 1
  28   16   17 1
  29   18   19 1
  30   18   37 1
  31   18   38 1
  32   19   20 ar
  33   19   24 ar
  34   20   21 ar
  35   20   39 1
  36   21   22 ar
  37   21   40 1
  38   22   23 ar
  39   22   41 1
  40   23   24 ar
  41   23   42 1
  42   24   25 1
  43   25   26 1
  44   25   27 1
  45   26   43 1
  46   27   44 1

#	End of record

