#	Name: ASD01440101
#	Creating user name:	WinNT
#	Creation time:	15. 06. 2019 19:21

#	Modifying user name:	WinNT
#	Modification time:	15. 06. 2019 19:21

#	Program:	/corina/corina34_cracker 3.40 0067  02.08.2006

@<TRIPOS>MOLECULE
ASD01440101
  81   86    0    0    0
SMALL
NO_CHARGES


@<TRIPOS>ATOM
   1 N1             2.0583     1.4836    -0.3684 N.ar    
   2 C2             2.0583     0.1674    -0.4977 C.ar    
   3 C3             1.3650    -0.6322     0.4022 C.ar    
   4 C4             0.6718    -0.0335     1.4394 C.ar    
   5 C5             0.6967     1.3509     1.5403 C.ar    
   6 C6             1.4068     2.0832     0.6101 C.ar    
   7 C7             1.3674    -2.1316     0.2505 C.3     
   8 C8             0.6753    -2.7851     1.4278 C.2     
   9 C9             0.5329    -2.5451    -0.9403 C.ar    
  10 N10            2.7383    -2.6309     0.1188 N.am    
  11 C11           -0.4962    -3.3377    -0.4396 C.ar    
  12 C12            0.6325    -2.2826    -2.2835 C.ar    
  13 C13           -0.3111    -2.8165    -3.1680 C.ar    
  14 C14           -1.3466    -3.6129    -2.6715 C.ar    
  15 C15           -1.4375    -3.8690    -1.3232 C.ar    
  16 C16           -0.2168    -2.5484    -4.5715 C.1     
  17 N17           -0.3824    -3.4563     0.9427 N.am    
  18 C18           -2.8013    -3.2767     2.2431 C.ar    
  19 C19           -3.9390    -3.3314     1.4598 C.ar    
  20 C20           -2.7397    -2.4030     3.3125 C.ar    
  21 C21           -3.8159    -1.5839     3.5987 C.ar    
  22 C22           -4.9534    -1.6383     2.8152 C.ar    
  23 C23           -5.0152    -2.5123     1.7460 C.ar    
  24 O24            1.0130    -2.7163     2.5906 O.2     
  25 C25            3.6352    -2.4043     1.0990 C.2     
  26 O26            3.3347    -1.7068     2.0485 O.2     
  27 N27            4.8650    -2.9508     1.0266 N.am    
  28 C28            5.2056    -3.8876    -0.0528 C.3     
  29 C29            5.7571    -5.1751     0.5676 C.3     
  30 C30            6.9263    -4.8306     1.4930 C.3     
  31 C31            6.4347    -3.9224     2.6224 C.3     
  32 C32            5.8925    -2.6163     2.0222 C.3     
  33 C33            7.5019    -6.1174     2.0878 C.3     
  34 C34            7.9958    -7.0266     0.9590 C.3     
  35 C35            8.6254    -8.2843     1.5621 C.3     
  36 N36            9.7445    -7.9035     2.4333 N.3     
  37 C37            9.2868    -7.0690     3.5515 C.3     
  38 C38            8.6770    -5.7750     3.0078 C.3     
  39 O39            2.7415    -0.4074    -1.5193 O.3     
  40 C40            3.3448     0.4709    -2.4716 C.3     
  41 C41            3.9613    -0.3516    -3.6048 C.3     
  42 N42           -0.1419    -2.3358    -5.6849 N.1     
  43 S43           -1.4324    -4.3259     1.8827 S.o2    
  44 O44           -1.9337    -5.3720     1.0619 O.2     
  45 O45           -0.7682    -4.5573     3.1174 O.2     
  46 H46            0.1236    -0.6296     2.1540 H       
  47 H47            0.1660     1.8497     2.3378 H       
  48 H48            1.4297     3.1604     0.6843 H       
  49 H49            3.0006    -3.1246    -0.6739 H       
  50 H50            1.4364    -1.6655    -2.6567 H       
  51 H51           -2.0783    -4.0282    -3.3487 H       
  52 H52           -2.2404    -4.4851    -0.9462 H       
  53 H53           -3.9870    -4.0138     0.6241 H       
  54 H54           -1.8510    -2.3605     3.9246 H       
  55 H55           -3.7680    -0.9017     4.4346 H       
  56 H56           -5.7945    -0.9988     3.0392 H       
  57 H57           -5.9038    -2.5545     1.1337 H       
  58 H58            4.3122    -4.1156    -0.6341 H       
  59 H59            5.9608    -3.4410    -0.6995 H       
  60 H60            4.9721    -5.6679     1.1412 H       
  61 H61            6.1030    -5.8408    -0.2232 H       
  62 H62            7.7004    -4.3158     0.9240 H       
  63 H63            5.6433    -4.4270     3.1767 H       
  64 H64            7.2628    -3.6964     3.2942 H       
  65 H65            6.7054    -2.0679     1.5461 H       
  66 H66            5.4509    -2.0073     2.8109 H       
  67 H67            6.7292    -6.6324     2.6585 H       
  68 H68            7.1554    -7.3086     0.3247 H       
  69 H69            8.7398    -6.4967     0.3641 H       
  70 H70            7.8772    -8.8209     2.1455 H       
  71 H71            8.9910    -8.9272     0.7614 H       
  72 H72           10.2358    -8.7188     2.7680 H       
  73 H73            8.5355    -7.6113     4.1257 H       
  74 H74           10.1327    -6.8292     4.1958 H       
  75 H75            9.4316    -5.2254     2.4452 H       
  76 H76            8.3232    -5.1628     3.8374 H       
  77 H77            2.5874     1.1405    -2.8791 H       
  78 H78            4.1231     1.0571    -1.9830 H       
  79 H79            4.4979     0.3108    -4.2841 H       
  80 H80            4.6538    -1.0829    -3.1879 H       
  81 H81            3.1716    -0.8686    -4.1498 H       
@<TRIPOS>BOND
   1    1    2 ar
   2    1    6 ar
   3    2    3 ar
   4    2   39 1
   5    3    4 ar
   6    3    7 1
   7    4    5 ar
   8    4   46 1
   9    5    6 ar
  10    5   47 1
  11    6   48 1
  12    7    8 1
  13    7    9 1
  14    7   10 1
  15    8   17 am
  16    8   24 2
  17    9   11 ar
  18    9   12 ar
  19   10   25 am
  20   10   49 1
  21   11   17 1
  22   11   15 ar
  23   12   13 ar
  24   12   50 1
  25   13   14 ar
  26   13   16 1
  27   14   15 ar
  28   14   51 1
  29   15   52 1
  30   16   42 3
  31   17   43 am
  32   18   19 ar
  33   18   20 ar
  34   18   43 1
  35   19   23 ar
  36   19   53 1
  37   20   21 ar
  38   20   54 1
  39   21   22 ar
  40   21   55 1
  41   22   23 ar
  42   22   56 1
  43   23   57 1
  44   25   26 2
  45   25   27 am
  46   27   28 1
  47   27   32 1
  48   28   29 1
  49   28   58 1
  50   28   59 1
  51   29   30 1
  52   29   60 1
  53   29   61 1
  54   30   31 1
  55   30   33 1
  56   30   62 1
  57   31   32 1
  58   31   63 1
  59   31   64 1
  60   32   65 1
  61   32   66 1
  62   33   34 1
  63   33   38 1
  64   33   67 1
  65   34   35 1
  66   34   68 1
  67   34   69 1
  68   35   36 1
  69   35   70 1
  70   35   71 1
  71   36   37 1
  72   36   72 1
  73   37   38 1
  74   37   73 1
  75   37   74 1
  76   38   75 1
  77   38   76 1
  78   39   40 1
  79   40   41 1
  80   40   77 1
  81   40   78 1
  82   41   79 1
  83   41   80 1
  84   41   81 1
  85   43   44 2
  86   43   45 2

#	End of record

