#	Name: ASD00111032
#	Creating user name:	WinNT
#	Creation time:	15. 06. 2019 18:30

#	Modifying user name:	WinNT
#	Modification time:	15. 06. 2019 18:30

#	Program:	/corina/corina34_cracker 3.40 0067  02.08.2006

@<TRIPOS>MOLECULE
ASD00111032
  27   28    0    0    0
SMALL
NO_CHARGES


@<TRIPOS>ATOM
   1 C1            -0.0167     1.3788     0.0096 C.ar    
   2 C2             0.0021    -0.0041     0.0020 C.ar    
   3 C3            -1.1856    -0.7134     0.0094 C.ar    
   4 C4            -2.3885    -0.0323     0.0241 C.ar    
   5 C5            -2.4075     1.3413     0.0321 C.ar    
   6 C6            -1.2243     2.0557     0.0306 C.ar    
   7 C7            -3.6912    -0.8051     0.0302 C.3     
   8 C8            -4.3539    -0.6200     1.3990 C.3     
   9 N9            -5.1332     0.6067     1.4349 N.3     
  10 C10           -4.3877     1.8545     1.4157 C.3     
  11 C11           -3.7315     2.0770     0.0485 C.3     
  12 C12           -3.4935     3.5721    -0.1723 C.3     
  13 Br13           1.6083     2.3458    -0.0007 Br      
  14 H14            0.9449    -0.5307    -0.0100 H       
  15 H15           -1.1731    -1.7934     0.0032 H       
  16 H16           -1.2417     3.1355     0.0374 H       
  17 H17           -4.3485    -0.4232    -0.7510 H       
  18 H18           -3.4917    -1.8628    -0.1415 H       
  19 H19           -5.0100    -1.4675     1.5971 H       
  20 H20           -3.5825    -0.5773     2.1679 H       
  21 H21           -5.8484     0.6017     0.7231 H       
  22 H22           -5.0665     2.6810     1.6261 H       
  23 H23           -3.6148     1.8222     2.1836 H       
  24 H24           -4.3786     1.6874    -0.7374 H       
  25 H25           -2.8378     3.9550     0.6098 H       
  26 H26           -3.0269     3.7260    -1.1452 H       
  27 H27           -4.4463     4.1006    -0.1385 H       
@<TRIPOS>BOND
   1    1    2 ar
   2    1   13 1
   3    1    6 ar
   4    2    3 ar
   5    2   14 1
   6    3    4 ar
   7    3   15 1
   8    4    5 ar
   9    4    7 1
  10    5    6 ar
  11    5   11 1
  12    6   16 1
  13    7    8 1
  14    7   17 1
  15    7   18 1
  16    8    9 1
  17    8   19 1
  18    8   20 1
  19    9   10 1
  20    9   21 1
  21   10   11 1
  22   10   22 1
  23   10   23 1
  24   11   12 1
  25   11   24 1
  26   12   25 1
  27   12   26 1
  28   12   27 1

#	End of record

