#	Name: ASD01209122
#	Creating user name:	WinNT
#	Creation time:	15. 06. 2019 19:11

#	Modifying user name:	WinNT
#	Modification time:	15. 06. 2019 19:11

#	Program:	/corina/corina34_cracker 3.40 0067  02.08.2006

@<TRIPOS>MOLECULE
ASD01209122
  80   82    0    0    0
SMALL
NO_CHARGES


@<TRIPOS>ATOM
   1 C1            -0.0401     3.0602     0.5317 C.ar    
   2 C2             0.1271     1.6991     0.7407 C.ar    
   3 C3            -0.9087     0.8182     0.4643 C.ar    
   4 C4            -2.1147     1.2950    -0.0217 C.ar    
   5 C5            -2.2872     2.6636    -0.2335 C.ar    
   6 C6            -1.2450     3.5463     0.0512 C.ar    
   7 O7             0.9778     3.9186     0.8040 O.3     
   8 C8             0.7144     5.3126     0.6322 C.3     
   9 C9             1.6881     6.1249     1.4882 C.3     
  10 O10           -0.7394    -0.5144     0.6704 O.3     
  11 C11            0.5339    -0.9383     1.1615 C.3     
  12 C12            0.3810    -2.2783     1.8848 C.3     
  13 C13           -3.5726     3.1770    -0.7526 C.2     
  14 N14           -3.7371     4.4991    -0.9563 N.am    
  15 O15           -4.4811     2.4068    -0.9956 O.2     
  16 C16           -4.9448     4.9815    -1.4441 C.2     
  17 S17           -6.3024     4.0154    -1.8268 S.3     
  18 C18           -7.2020     5.4516    -2.3083 C.2     
  19 C19           -6.4097     6.5121    -2.1394 C.2     
  20 N20           -5.2086     6.2306    -1.6701 N.2     
  21 P21           -7.6108     8.6618    -0.9725 P.3     
  22 O22           -6.6621     8.5814     0.1606 O.2     
  23 C23            0.8942     5.6879    -0.8401 C.3     
  24 C24            1.7413    -2.7126     2.4396 C.3     
  25 N25            2.7170    -2.7277     1.3413 N.am    
  26 C26            2.8781    -1.5182     0.5228 C.3     
  27 C27            1.5051    -1.0972    -0.0105 C.3     
  28 S28            3.6185    -4.0819     1.0320 S.o2    
  29 O29            4.7939    -3.5853     0.4068 O.2     
  30 O30            3.6819    -4.7538     2.2826 O.2     
  31 C31            2.6207    -5.0297    -0.1498 C.3     
  32 C32           -6.8524     7.9178    -2.4539 C.3     
  33 O33           -8.9589     7.8637    -0.6014 O.3     
  34 C34           -9.7033     8.1067     0.5940 C.3     
  35 C35          -11.1588     8.4127     0.2351 C.3     
  36 C36           -9.6485     6.8676     1.4897 C.3     
  37 O37           -7.9645    10.2044    -1.2679 O.3     
  38 C38           -8.4396    11.1005    -0.2612 C.3     
  39 C39           -7.3984    12.1954    -0.0204 C.3     
  40 C40           -9.7518    11.7374    -0.7234 C.3     
  41 H41            1.0664     1.3239     1.1193 H       
  42 H42           -2.9203     0.6086    -0.2369 H       
  43 H43           -1.3744     4.6062    -0.1109 H       
  44 H44           -0.3084     5.5297     0.9402 H       
  45 H45            2.7109     5.9077     1.1802 H       
  46 H46            1.4872     7.1882     1.3572 H       
  47 H47            1.5600     5.8575     2.5371 H       
  48 H48            0.9218    -0.1930     1.8558 H       
  49 H49           -0.3287    -2.1701     2.7050 H       
  50 H50            0.0168    -3.0302     1.1848 H       
  51 H51           -3.0122     5.1136    -0.7624 H       
  52 H52           -8.2172     5.4705    -2.6762 H       
  53 H53            1.9170     5.4708    -1.1481 H       
  54 H54            0.2005     5.1092    -1.4499 H       
  55 H55            0.6933     6.7512    -0.9711 H       
  56 H56            2.0649    -2.0086     3.2063 H       
  57 H57            1.6589    -3.7111     2.8689 H       
  58 H58            3.2944    -0.7167     1.1331 H       
  59 H59            3.5458    -1.7286    -0.3127 H       
  60 H60            1.1303    -1.8603    -0.6928 H       
  61 H61            1.5955    -0.1484    -0.5394 H       
  62 H62            2.4592    -4.4344    -1.0485 H       
  63 H63            3.1442    -5.9490    -0.4122 H       
  64 H64            1.6592    -5.2751     0.3011 H       
  65 H65           -5.9898     8.5111    -2.7574 H       
  66 H66           -7.5818     7.8965    -3.2637 H       
  67 H67           -9.2731     8.9570     1.1233 H       
  68 H68          -11.7025     8.6991     1.1354 H       
  69 H69          -11.1913     9.2306    -0.4846 H       
  70 H70          -11.6195     7.5264    -0.2010 H       
  71 H71           -8.6116     6.6496     1.7454 H       
  72 H72          -10.2163     7.0530     2.4015 H       
  73 H73          -10.0787     6.0173     0.9604 H       
  74 H74           -8.6090    10.5504     0.6644 H       
  75 H75           -7.7608    12.8789     0.7474 H       
  76 H76           -6.4636    11.7418     0.3088 H       
  77 H77           -7.2290    12.7456    -0.9460 H       
  78 H78          -10.5159    10.9660    -0.8194 H       
  79 H79          -10.0735    12.4784     0.0083 H       
  80 H80           -9.6007    12.2213    -1.6883 H       
@<TRIPOS>BOND
   1    1    2 ar
   2    1    7 1
   3    1    6 ar
   4    2    3 ar
   5    2   41 1
   6    3    4 ar
   7    3   10 1
   8    4    5 ar
   9    4   42 1
  10    5    6 ar
  11    5   13 1
  12    6   43 1
  13    7    8 1
  14    8    9 1
  15    8   23 1
  16    8   44 1
  17    9   45 1
  18    9   46 1
  19    9   47 1
  20   10   11 1
  21   11   12 1
  22   11   27 1
  23   11   48 1
  24   12   24 1
  25   12   49 1
  26   12   50 1
  27   13   14 am
  28   13   15 2
  29   14   16 1
  30   14   51 1
  31   16   17 1
  32   16   20 2
  33   17   18 1
  34   18   19 2
  35   18   52 1
  36   19   20 1
  37   19   32 1
  38   21   22 2
  39   21   33 1
  40   21   37 1
  41   21   32 1
  42   23   53 1
  43   23   54 1
  44   23   55 1
  45   24   25 1
  46   24   56 1
  47   24   57 1
  48   25   26 1
  49   25   28 am
  50   26   27 1
  51   26   58 1
  52   26   59 1
  53   27   60 1
  54   27   61 1
  55   28   29 2
  56   28   30 2
  57   28   31 1
  58   31   62 1
  59   31   63 1
  60   31   64 1
  61   32   65 1
  62   32   66 1
  63   33   34 1
  64   34   35 1
  65   34   36 1
  66   34   67 1
  67   35   68 1
  68   35   69 1
  69   35   70 1
  70   36   71 1
  71   36   72 1
  72   36   73 1
  73   37   38 1
  74   38   39 1
  75   38   40 1
  76   38   74 1
  77   39   75 1
  78   39   76 1
  79   39   77 1
  80   40   78 1
  81   40   79 1
  82   40   80 1

#	End of record

