#	Name: ASD05940005
#	Creating user name:	WinNT
#	Creation time:	15. 06. 2019 21:04

#	Modifying user name:	WinNT
#	Modification time:	15. 06. 2019 21:04

#	Program:	/corina/corina34_cracker 3.40 0067  02.08.2006

@<TRIPOS>MOLECULE
ASD05940005
  60   63    0    0    0
SMALL
NO_CHARGES


@<TRIPOS>ATOM
   1 N1             0.1406     1.5161     0.0070 N.ar    
   2 C2             0.1169     0.1940     0.0197 C.ar    
   3 N3             1.2243    -0.5304     0.0038 N.ar    
   4 C4             2.4179     0.0569    -0.0264 C.ar    
   5 C5             2.4824     1.4493    -0.0448 C.ar    
   6 C6             1.2974     2.1783    -0.0252 C.ar    
   7 N7             3.5793    -0.6964    -0.0342 N.3     
   8 C8             4.6302    -0.0810    -0.8507 C.3     
   9 C9             4.8110     1.3642    -0.4643 C.2     
  10 N10            3.7329     2.0889    -0.0866 N.am    
  11 N11            1.3190     3.5664    -0.0399 N.pl3   
  12 O12           -1.0805    -0.4398     0.0506 O.3     
  13 C13            3.3110    -2.0729    -0.4715 C.3     
  14 O14            5.9121     1.8727    -0.4920 O.2     
  15 C15            4.6162    -2.7896    -0.7036 C.ar    
  16 C16            5.3535    -3.2481     0.3718 C.ar    
  17 C17            6.5509    -3.9056     0.1589 C.ar    
  18 C18            7.0104    -4.1048    -1.1293 C.ar    
  19 C19            6.2724    -3.6470    -2.2050 C.ar    
  20 C20            5.0733    -2.9935    -1.9924 C.ar    
  21 C21           -2.2493     0.3822     0.0673 C.3     
  22 C22           -3.4958    -0.5044     0.1015 C.3     
  23 C23           -4.7473     0.3756     0.1194 C.3     
  24 C24           -5.9937    -0.5109     0.1536 C.3     
  25 C25            4.8525    -3.0309     1.7764 C.3     
  26 N26            5.1089    -1.6414     2.1784 N.3     
  27 C27            4.3283    -1.2856     3.3775 C.3     
  28 C28            5.3300    -0.8099     4.4507 C.3     
  29 C29            6.5641    -0.3841     3.6125 C.3     
  30 C30            6.5428    -1.4304     2.4704 C.3     
  31 H31            5.5673    -0.6160    -0.6962 H       
  32 H32            4.3519    -0.1414    -1.9028 H       
  33 H33            3.8208     3.0258     0.1489 H       
  34 H34            2.1663     4.0380    -0.0640 H       
  35 H35            0.4869     4.0646    -0.0260 H       
  36 H36            2.7420    -2.5943     0.2982 H       
  37 H37            2.7369    -2.0544    -1.3979 H       
  38 H38            7.1274    -4.2633     0.9992 H       
  39 H39            7.9462    -4.6178    -1.2956 H       
  40 H40            6.6317    -3.8024    -3.2116 H       
  41 H41            4.4967    -2.6359    -2.8327 H       
  42 H42           -2.2326     1.0197     0.9513 H       
  43 H43           -2.2696     1.0032    -0.8282 H       
  44 H44           -3.5126    -1.1419    -0.7825 H       
  45 H45           -3.4755    -1.1255     0.9970 H       
  46 H46           -4.7305     1.0131     1.0034 H       
  47 H47           -4.7676     0.9967    -0.7761 H       
  48 H48           -6.8853     0.1160     0.1664 H       
  49 H49           -6.0105    -1.1485    -0.7304 H       
  50 H50           -5.9734    -1.1320     1.0491 H       
  51 H51            3.7812    -3.2283     1.8146 H       
  52 H52            5.3711    -3.7073     2.4558 H       
  53 H53            3.6298    -0.4831     3.1406 H       
  54 H54            3.7847    -2.1587     3.7386 H       
  55 H55            4.9281     0.0391     5.0036 H       
  56 H56            5.5863    -1.6254     5.1271 H       
  57 H57            6.4400     0.6251     3.2199 H       
  58 H58            7.4801    -0.4638     4.1980 H       
  59 H59            7.0040    -2.3614     2.8000 H       
  60 H60            7.0562    -1.0423     1.5906 H       
@<TRIPOS>BOND
   1    1    2 ar
   2    1    6 ar
   3    2    3 ar
   4    2   12 1
   5    3    4 ar
   6    4    5 ar
   7    4    7 1
   8    5    6 ar
   9    5   10 1
  10    6   11 1
  11    7    8 1
  12    7   13 1
  13    8    9 1
  14    8   31 1
  15    8   32 1
  16    9   10 am
  17    9   14 2
  18   10   33 1
  19   11   34 1
  20   11   35 1
  21   12   21 1
  22   13   15 1
  23   13   36 1
  24   13   37 1
  25   15   16 ar
  26   15   20 ar
  27   16   17 ar
  28   16   25 1
  29   17   18 ar
  30   17   38 1
  31   18   19 ar
  32   18   39 1
  33   19   20 ar
  34   19   40 1
  35   20   41 1
  36   21   22 1
  37   21   42 1
  38   21   43 1
  39   22   23 1
  40   22   44 1
  41   22   45 1
  42   23   24 1
  43   23   46 1
  44   23   47 1
  45   24   48 1
  46   24   49 1
  47   24   50 1
  48   25   26 1
  49   25   51 1
  50   25   52 1
  51   26   27 1
  52   26   30 1
  53   27   28 1
  54   27   53 1
  55   27   54 1
  56   28   29 1
  57   28   55 1
  58   28   56 1
  59   29   30 1
  60   29   57 1
  61   29   58 1
  62   30   59 1
  63   30   60 1

#	End of record

