#	Name: ASD08070240
#	Creating user name:	WinNT
#	Creation time:	15. 06. 2019 21:14

#	Modifying user name:	WinNT
#	Modification time:	15. 06. 2019 21:14

#	Program:	/corina/corina34_cracker 3.40 0067  02.08.2006

@<TRIPOS>MOLECULE
ASD08070240
  39   40    0    0    0
SMALL
NO_CHARGES


@<TRIPOS>ATOM
   1 C1             0.1845     1.4899    -0.0400 C.ar    
   2 C2             0.2145     0.0152    -0.0291 C.2     
   3 O3             0.4327    -0.5809     1.0080 O.2     
   4 N4             0.0001    -0.6716    -1.1688 N.am    
   5 C5             0.1245    -2.0645    -1.1798 C.ar    
   6 C6            -0.2610    -2.8066    -0.0706 C.ar    
   7 C7            -0.1368    -4.1818    -0.0846 C.ar    
   8 C8             1.3540     2.2145    -0.2813 C.ar    
   9 C9             1.3192     3.5923    -0.2900 C.ar    
  10 C10            0.1293     4.2628    -0.0600 C.ar    
  11 C11           -1.0343     3.5588     0.1799 C.ar    
  12 C12            0.6284    -2.7093    -2.3017 C.ar    
  13 C13            0.7501    -4.0852    -2.3093 C.ar    
  14 C14            0.3708    -4.8204    -1.2015 C.ar    
  15 C15           -1.0190     2.1722     0.1862 C.ar    
  16 C16           -0.5544    -4.9876     1.1185 C.3     
  17 C17           -2.0285    -5.3751     0.9861 C.3     
  18 C18            2.6520     1.4909    -0.5313 C.3     
  19 O19           -2.1613     1.4793     0.4213 O.3     
  20 C20           -3.3466     2.2426     0.6554 C.3     
  21 H21           -0.2406    -0.1998    -1.9814 H       
  22 H22           -0.6572    -2.3085     0.8020 H       
  23 H23            2.2240     4.1517    -0.4767 H       
  24 H24            0.1114     5.3426    -0.0680 H       
  25 H25           -1.9582     4.0888     0.3585 H       
  26 H26            0.9246    -2.1357    -3.1675 H       
  27 H27            1.1420    -4.5873    -3.1815 H       
  28 H28            0.4669    -5.8961    -1.2099 H       
  29 H29            0.0543    -5.8896     1.1806 H       
  30 H30           -0.4148    -4.3922     2.0208 H       
  31 H31           -2.6372    -4.4730     0.9239 H       
  32 H32           -2.1681    -5.9705     0.0838 H       
  33 H33           -2.3305    -5.9579     1.8563 H       
  34 H34            2.7643     1.3046    -1.5994 H       
  35 H35            3.4827     2.1029    -0.1799 H       
  36 H36            2.6479     0.5417     0.0046 H       
  37 H37           -3.2034     2.8769     1.5302 H       
  38 H38           -3.5555     2.8651    -0.2146 H       
  39 H39           -4.1848     1.5678     0.8290 H       
@<TRIPOS>BOND
   1    1    2 1
   2    1    8 ar
   3    1   15 ar
   4    2    3 2
   5    2    4 am
   6    4    5 1
   7    4   21 1
   8    5    6 ar
   9    5   12 ar
  10    6    7 ar
  11    6   22 1
  12    7   16 1
  13    7   14 ar
  14    8    9 ar
  15    8   18 1
  16    9   10 ar
  17    9   23 1
  18   10   11 ar
  19   10   24 1
  20   11   15 ar
  21   11   25 1
  22   12   13 ar
  23   12   26 1
  24   13   14 ar
  25   13   27 1
  26   14   28 1
  27   15   19 1
  28   16   17 1
  29   16   29 1
  30   16   30 1
  31   17   31 1
  32   17   32 1
  33   17   33 1
  34   18   34 1
  35   18   35 1
  36   18   36 1
  37   19   20 1
  38   20   37 1
  39   20   38 1
  40   20   39 1

#	End of record

