#	Name: ASD01190129
#	Creating user name:	WinNT
#	Creation time:	15. 06. 2019 19:07

#	Modifying user name:	WinNT
#	Modification time:	15. 06. 2019 19:07

#	Program:	/corina/corina34_cracker 3.40 0067  02.08.2006

@<TRIPOS>MOLECULE
ASD01190129
  24   25    0    0    0
SMALL
NO_CHARGES


@<TRIPOS>ATOM
   1 C1            -0.0184     1.5028     0.0103 C.2     
   2 C2             0.1778     0.0094    -0.0397 C.3     
   3 C3             2.7290     5.5984    -0.0708 C.ar    
   4 C4             2.4400     4.2341    -0.0093 C.ar    
   5 C5             1.0949     3.8345    -0.0598 C.ar    
   6 C6             0.1041     4.8121    -0.1685 C.ar    
   7 C7             0.4770     6.1258    -0.2221 C.ar    
   8 N8             1.7509     6.4807    -0.1735 N.ar    
   9 N9             3.2102     3.0950     0.0960 N.pl3   
  10 C10            1.1065     2.3654     0.0230 C.2     
  11 C11            2.4339     1.9962     0.1154 C.2     
  12 O12            4.0178     6.0199    -0.0190 O.3     
  13 C13            4.2425     7.4295    -0.0869 C.3     
  14 F14           -0.5400    -0.5193    -1.1179 F       
  15 F15            1.5377    -0.2772    -0.1994 F       
  16 F16           -0.2824    -0.5615     1.1517 F       
  17 O17           -1.1397     1.9672     0.0347 O.2     
  18 H18           -0.9389     4.5350    -0.2098 H       
  19 H19           -0.2826     6.8889    -0.3062 H       
  20 H20            4.1787     3.0870     0.1480 H       
  21 H21            2.7939     0.9808     0.1914 H       
  22 H22            3.8455     7.8159    -1.0256 H       
  23 H23            3.7407     7.9181     0.7483 H       
  24 H24            5.3127     7.6297    -0.0352 H       
@<TRIPOS>BOND
   1    1    2 1
   2    1   10 1
   3    1   17 2
   4    2   14 1
   5    2   15 1
   6    2   16 1
   7    3    4 ar
   8    3    8 ar
   9    3   12 1
  10    4    5 ar
  11    4    9 1
  12    5    6 ar
  13    5   10 1
  14    6    7 ar
  15    6   18 1
  16    7    8 ar
  17    7   19 1
  18    9   11 1
  19    9   20 1
  20   10   11 2
  21   11   21 1
  22   12   13 1
  23   13   22 1
  24   13   23 1
  25   13   24 1

#	End of record

