#	Name: ASD01816710
#	Creating user name:	WinNT
#	Creation time:	15. 06. 2019 19:35

#	Modifying user name:	WinNT
#	Modification time:	15. 06. 2019 19:35

#	Program:	/corina/corina34_cracker 3.40 0067  02.08.2006

@<TRIPOS>MOLECULE
ASD01816710
  64   68    0    0    0
SMALL
NO_CHARGES


@<TRIPOS>ATOM
   1 C1            -0.0167     1.3960     0.0156 C.2     
   2 C2             0.0025    -0.0052    -0.0025 C.2     
   3 C3             1.1989    -0.6602    -0.0249 C.2     
   4 C4             2.3921     0.0815    -0.0292 C.2     
   5 N5             2.3439     1.4491    -0.0108 N.am    
   6 C6             1.1421     2.0927     0.0110 C.2     
   7 C7             3.6230    -0.5886    -0.0520 C.2     
   8 C8             4.7879     0.1231    -0.0565 C.2     
   9 C9             4.7340     1.5284    -0.0380 C.2     
  10 C10            3.4813     2.1731    -0.0149 C.2     
  11 C11            3.6604    -2.0950    -0.0711 C.3     
  12 O12            3.4256     3.3913     0.0012 O.2     
  13 C13            5.9710     2.3159    -0.0418 C.2     
  14 N14            7.1647     1.6963     0.0459 N.am    
  15 O15            5.9198     3.5292    -0.1241 O.2     
  16 N16            3.7770    -2.5644    -1.4583 N.3     
  17 C17            4.0538    -4.0058    -1.5046 C.3     
  18 C18            4.3124    -4.4307    -2.9519 C.3     
  19 C19            3.0832    -4.1004    -3.8030 C.3     
  20 C20            2.7877    -2.6016    -3.6989 C.3     
  21 C21            2.5733    -2.2298    -2.2300 C.3     
  22 C22            3.3544    -4.4616    -5.2408 C.ar    
  23 N23            4.5921    -4.6926    -5.6323 N.ar    
  24 C24            1.9252    -4.8653    -3.3124 C.1     
  25 N25            1.0315    -5.4556    -2.9338 N.1     
  26 C26            4.8767    -5.0116    -6.8799 C.ar    
  27 C27            3.8773    -5.1151    -7.8286 C.ar    
  28 C28            2.5631    -4.8792    -7.4542 C.ar    
  29 C29            2.3021    -4.5523    -6.1325 C.ar    
  30 C30            8.4025     2.4710    -0.0711 C.3     
  31 C31            8.7714     3.0554     1.2950 C.3     
  32 O32           10.0091     3.7620     1.1908 O.3     
  33 C33           11.1141     2.9479     0.7930 C.3     
  34 C34           10.8394     2.3592    -0.5933 C.3     
  35 C35            9.5350     1.5573    -0.5495 C.3     
  36 H36           -0.9603     1.9212     0.0289 H       
  37 H37           -0.9228    -0.5622     0.0014 H       
  38 H38            1.2286    -1.7397    -0.0387 H       
  39 H39            1.1154     3.1723     0.0254 H       
  40 H40            5.7397    -0.3869    -0.0737 H       
  41 H41            4.5179    -2.4445     0.5039 H       
  42 H42            2.7435    -2.4869     0.3692 H       
  43 H43            7.2041     0.7373     0.1865 H       
  44 H44            4.9326    -4.2265    -0.8987 H       
  45 H45            3.1962    -4.5531    -1.1132 H       
  46 H46            5.1783    -3.8940    -3.3395 H       
  47 H47            4.5024    -5.5034    -2.9878 H       
  48 H48            3.6297    -2.0361    -4.0983 H       
  49 H49            1.8884    -2.3675    -4.2686 H       
  50 H50            1.7227    -2.7853    -1.8351 H       
  51 H51            2.3768    -1.1605    -2.1509 H       
  52 H52            5.9027    -5.1937    -7.1635 H       
  53 H53            4.1168    -5.3760    -8.8489 H       
  54 H54            1.7615    -4.9525    -8.1742 H       
  55 H55            1.2905    -4.3624    -5.8057 H       
  56 H56            8.2594     3.2805    -0.7869 H       
  57 H57            7.9883     3.7399     1.6210 H       
  58 H58            8.8737     2.2480     2.0201 H       
  59 H59           12.0187     3.5550     0.7573 H       
  60 H60           11.2470     2.1391     1.5115 H       
  61 H61           10.7465     3.1663    -1.3199 H       
  62 H62           11.6611     1.7028    -0.8796 H       
  63 H63            9.6444     0.7205     0.1404 H       
  64 H64            9.3042     1.1819    -1.5464 H       
@<TRIPOS>BOND
   1    1    2 1
   2    1    6 2
   3    1   36 1
   4    2    3 2
   5    2   37 1
   6    3    4 1
   7    3   38 1
   8    4    5 1
   9    4    7 2
  10    5    6 1
  11    5   10 am
  12    6   39 1
  13    7    8 1
  14    7   11 1
  15    8    9 2
  16    8   40 1
  17    9   10 1
  18    9   13 1
  19   10   12 2
  20   11   16 1
  21   11   41 1
  22   11   42 1
  23   13   14 am
  24   13   15 2
  25   14   30 1
  26   14   43 1
  27   16   17 1
  28   16   21 1
  29   17   18 1
  30   17   44 1
  31   17   45 1
  32   18   19 1
  33   18   46 1
  34   18   47 1
  35   19   20 1
  36   19   22 1
  37   19   24 1
  38   20   21 1
  39   20   48 1
  40   20   49 1
  41   21   50 1
  42   21   51 1
  43   22   23 ar
  44   22   29 ar
  45   23   26 ar
  46   24   25 3
  47   26   27 ar
  48   26   52 1
  49   27   28 ar
  50   27   53 1
  51   28   29 ar
  52   28   54 1
  53   29   55 1
  54   30   31 1
  55   30   35 1
  56   30   56 1
  57   31   32 1
  58   31   57 1
  59   31   58 1
  60   32   33 1
  61   33   34 1
  62   33   59 1
  63   33   60 1
  64   34   35 1
  65   34   61 1
  66   34   62 1
  67   35   63 1
  68   35   64 1

#	End of record

