#	Name: ASD01510099
#	Creating user name:	WinNT
#	Creation time:	15. 06. 2019 19:21

#	Modifying user name:	WinNT
#	Modification time:	15. 06. 2019 19:21

#	Program:	/corina/corina34_cracker 3.40 0067  02.08.2006

@<TRIPOS>MOLECULE
ASD01510099
  15   15    0    0    0
SMALL
NO_CHARGES


@<TRIPOS>ATOM
   1 C1            -0.0173     1.4248     0.0099 C.3     
   2 O2             0.0021    -0.0041     0.0020 O.3     
   3 C3            -1.1983    -0.6364     0.0101 C.ar    
   4 C4            -1.2443    -2.0242     0.0031 C.ar    
   5 C5            -2.4753    -2.6579     0.0114 C.ar    
   6 C6            -3.6218    -1.8768     0.0266 C.ar    
   7 C7            -3.5016    -0.4998     0.0328 C.ar    
   8 N8            -2.3133     0.0752     0.0300 N.ar    
   9 Br9           -5.0584     0.5735     0.0534 Br      
  10 H10            1.0053     1.8021     0.0021 H       
  11 H11           -0.5445     1.7859    -0.8732 H       
  12 H12           -0.5275     1.7763     0.9067 H       
  13 H13           -0.3318    -2.6017    -0.0091 H       
  14 H14           -2.5415    -3.7358     0.0059 H       
  15 H15           -4.5976    -2.3396     0.0330 H       
@<TRIPOS>BOND
   1    1    2 1
   2    1   10 1
   3    1   11 1
   4    1   12 1
   5    2    3 1
   6    3    4 ar
   7    3    8 ar
   8    4    5 ar
   9    4   13 1
  10    5    6 ar
  11    5   14 1
  12    6    7 ar
  13    6   15 1
  14    7    8 ar
  15    7    9 1

#	End of record

