#	Name: ASD01910288
#	Creating user name:	WinNT
#	Creation time:	15. 06. 2019 19:55

#	Modifying user name:	WinNT
#	Modification time:	15. 06. 2019 19:55

#	Program:	/corina/corina34_cracker 3.40 0067  02.08.2006

@<TRIPOS>MOLECULE
ASD01910288
  48   51    0    0    0
SMALL
NO_CHARGES


@<TRIPOS>ATOM
   1 C1            -0.6759     2.3284     0.1865 C.ar    
   2 C2            -0.8095     0.9483     0.2562 C.ar    
   3 C3             0.3186     0.1407     0.3053 C.ar    
   4 C4             1.5756     0.7078     0.2854 C.ar    
   5 C5             1.7127     2.0927     0.2155 C.ar    
   6 C6             0.5786     2.9009     0.1659 C.ar    
   7 C7             3.0642     2.7060     0.1944 C.2     
   8 N8             3.3441     3.9926     0.1307 N.2     
   9 N9             4.6267     4.1178     0.1346 N.pl3   
  10 N10            5.1682     2.9517     0.1987 N.2     
  11 N11            4.2376     2.0596     0.2424 N.2     
  12 C12            5.3544     5.3879     0.0748 C.3     
  13 C13            6.2241     5.5377     1.3251 C.3     
  14 C14            6.9595     6.8790     1.2794 C.3     
  15 C15            7.8714     6.9151     0.0490 C.3     
  16 N16            7.0656     6.6277    -1.1455 N.am    
  17 C17            6.2481     5.4071    -1.1693 C.3     
  18 C18            7.0761     7.4678    -2.1993 C.2     
  19 C19            6.3651     7.1030    -3.4418 C.ar    
  20 O20            7.6707     8.5257    -2.1274 O.2     
  21 C21            5.6215     8.0631    -4.1313 C.ar    
  22 C22            4.9604     7.7175    -5.2903 C.ar    
  23 C23            5.0328     6.4193    -5.7719 C.ar    
  24 C24            5.7694     5.4620    -5.0911 C.ar    
  25 C25            6.4390     5.7983    -3.9342 C.ar    
  26 F26            4.3830     6.0858    -6.9085 F       
  27 O27           -2.0467     0.3870     0.2768 O.3     
  28 C28           -2.1111    -1.0387     0.3493 C.3     
  29 H29           -1.5552     2.9540     0.1439 H       
  30 H30            0.2118    -0.9326     0.3594 H       
  31 H31            2.4529     0.0791     0.3243 H       
  32 H32            0.6820     3.9745     0.1113 H       
  33 H33            4.6434     6.2126     0.0253 H       
  34 H34            5.5930     5.4996     2.2131 H       
  35 H35            6.9508     4.7261     1.3613 H       
  36 H36            6.2337     7.6899     1.2182 H       
  37 H37            7.5605     6.9953     2.1812 H       
  38 H38            8.3218     7.9034    -0.0431 H       
  39 H39            8.6536     6.1629     0.1517 H       
  40 H40            6.8980     4.5320    -1.1659 H       
  41 H41            5.6274     5.4004    -2.0652 H       
  42 H42            5.5641     9.0745    -3.7568 H       
  43 H43            4.3847     8.4592    -5.8241 H       
  44 H44            5.8222     4.4522    -5.4704 H       
  45 H45            7.0127     5.0520    -3.4048 H       
  46 H46           -3.1541    -1.3553     0.3587 H       
  47 H47           -1.6084    -1.4696    -0.5166 H       
  48 H48           -1.6200    -1.3788     1.2610 H       
@<TRIPOS>BOND
   1    1    2 ar
   2    1    6 ar
   3    1   29 1
   4    2    3 ar
   5    2   27 1
   6    3    4 ar
   7    3   30 1
   8    4    5 ar
   9    4   31 1
  10    5    6 ar
  11    5    7 1
  12    6   32 1
  13    7    8 2
  14    7   11 1
  15    8    9 1
  16    9   10 1
  17    9   12 1
  18   10   11 2
  19   12   13 1
  20   12   17 1
  21   12   33 1
  22   13   14 1
  23   13   34 1
  24   13   35 1
  25   14   15 1
  26   14   36 1
  27   14   37 1
  28   15   16 1
  29   15   38 1
  30   15   39 1
  31   16   17 1
  32   16   18 am
  33   17   40 1
  34   17   41 1
  35   18   19 1
  36   18   20 2
  37   19   21 ar
  38   19   25 ar
  39   21   22 ar
  40   21   42 1
  41   22   23 ar
  42   22   43 1
  43   23   24 ar
  44   23   26 1
  45   24   25 ar
  46   24   44 1
  47   25   45 1
  48   27   28 1
  49   28   46 1
  50   28   47 1
  51   28   48 1

#	End of record

