#	Name: ASD02038585
#	Creating user name:	WinNT
#	Creation time:	15. 06. 2019 20:17

#	Modifying user name:	WinNT
#	Modification time:	15. 06. 2019 20:17

#	Program:	/corina/corina34_cracker 3.40 0067  02.08.2006

@<TRIPOS>MOLECULE
ASD02038585
  57   60    0    0    0
SMALL
NO_CHARGES


@<TRIPOS>ATOM
   1 N1            -0.0236     1.4647     0.0075 N.3     
   2 C2             0.0021    -0.0041     0.0020 C.3     
   3 C3             1.3390     2.0152     0.0191 C.3     
   4 C4             0.6061    -0.4987    -1.3138 C.3     
   5 C5             0.7419    -2.0221    -1.2718 C.3     
   6 O6             1.4118    -2.4732    -2.4507 O.3     
   7 C7             1.6145    -3.8122    -2.5713 C.ar    
   8 C8             1.1740    -4.6728    -1.5689 C.ar    
   9 C9             1.3706    -6.0322    -1.6741 C.ar    
  10 C10            2.0146    -6.5566    -2.7895 C.ar    
  11 C11            2.4615    -5.6904    -3.8052 C.ar    
  12 C12            2.2510    -4.3126    -3.6896 C.ar    
  13 O13           -0.2461    -0.1262    -2.3988 O.3     
  14 C14            1.2700     3.5423    -0.0558 C.3     
  15 N15            0.4898     4.0512     1.0808 N.3     
  16 C16           -0.8727     3.5007     1.0692 C.3     
  17 C17           -0.8038     1.9736     1.1441 C.3     
  18 C18            0.4653     5.4510     1.0861 C.ar    
  19 C19           -0.2227     6.1296     2.0834 C.ar    
  20 C20           -0.2469     7.5101     2.0888 C.ar    
  21 C21            0.4174     8.2202     1.0967 C.ar    
  22 C22            1.1060     7.5411     0.0994 C.ar    
  23 C23            1.1339     6.1607     0.0972 C.ar    
  24 S24            0.3862     9.9819     1.1029 S.3     
  25 N25            2.2216    -7.9156    -2.9134 N.am    
  26 C26            2.8443    -8.4250    -3.9905 C.2     
  27 C27            3.3114    -7.5995    -5.0355 C.2     
  28 O28            3.0099    -9.6303    -4.0663 O.2     
  29 C29            3.1384    -6.2561    -4.9738 C.2     
  30 C30            1.3731    10.4127    -0.3569 C.3     
  31 H31            0.6070    -0.3600     0.8360 H       
  32 H32           -1.0141    -0.3856     0.1014 H       
  33 H33            1.8432     1.7186     0.9388 H       
  34 H34            1.8926     1.6336    -0.8388 H       
  35 H35            1.5895    -0.0499    -1.4536 H       
  36 H36            1.3184    -2.3113    -0.3931 H       
  37 H37           -0.2487    -2.4739    -1.2214 H       
  38 H38            0.6736    -4.2705    -0.7004 H       
  39 H39            1.0252    -6.6903    -0.8905 H       
  40 H40            2.5918    -3.6437    -4.4659 H       
  41 H41           -1.1397    -0.4909    -2.3402 H       
  42 H42            2.2785     3.9541    -0.0181 H       
  43 H43            0.7901     3.8393    -0.9883 H       
  44 H44           -1.4264     3.8822     1.9271 H       
  45 H45           -1.3769     3.7973     0.1495 H       
  46 H46           -1.8122     1.5617     1.1065 H       
  47 H47           -0.3239     1.6765     2.0767 H       
  48 H48           -0.7391     5.5775     2.8547 H       
  49 H49           -0.7826     8.0378     2.8640 H       
  50 H50            1.6225     8.0930    -0.6720 H       
  51 H51            1.6692     5.6327    -0.6781 H       
  52 H52            1.9137    -8.5118    -2.2129 H       
  53 H53            3.8085    -8.0394    -5.8874 H       
  54 H54            3.4924    -5.6171    -5.7693 H       
  55 H55            1.4229    11.4972    -0.4546 H       
  56 H56            2.3803    10.0112    -0.2459 H       
  57 H57            0.9089     9.9886    -1.2473 H       
@<TRIPOS>BOND
   1    1    2 1
   2    1    3 1
   3    1   17 1
   4    2    4 1
   5    2   31 1
   6    2   32 1
   7    3   14 1
   8    3   33 1
   9    3   34 1
  10    4    5 1
  11    4   13 1
  12    4   35 1
  13    5    6 1
  14    5   36 1
  15    5   37 1
  16    6    7 1
  17    7    8 ar
  18    7   12 ar
  19    8    9 ar
  20    8   38 1
  21    9   10 ar
  22    9   39 1
  23   10   11 ar
  24   10   25 1
  25   11   12 ar
  26   11   29 1
  27   12   40 1
  28   13   41 1
  29   14   15 1
  30   14   42 1
  31   14   43 1
  32   15   16 1
  33   15   18 1
  34   16   17 1
  35   16   44 1
  36   16   45 1
  37   17   46 1
  38   17   47 1
  39   18   19 ar
  40   18   23 ar
  41   19   20 ar
  42   19   48 1
  43   20   21 ar
  44   20   49 1
  45   21   22 ar
  46   21   24 1
  47   22   23 ar
  48   22   50 1
  49   23   51 1
  50   24   30 1
  51   25   26 am
  52   25   52 1
  53   26   27 1
  54   26   28 2
  55   27   29 2
  56   27   53 1
  57   29   54 1
  58   30   55 1
  59   30   56 1
  60   30   57 1

#	End of record

