#	Name: ASD01816784
#	Creating user name:	WinNT
#	Creation time:	15. 06. 2019 19:35

#	Modifying user name:	WinNT
#	Modification time:	15. 06. 2019 19:35

#	Program:	/corina/corina34_cracker 3.40 0067  02.08.2006

@<TRIPOS>MOLECULE
ASD01816784
  53   56    0    0    0
SMALL
NO_CHARGES


@<TRIPOS>ATOM
   1 C1            -0.0698     1.3233    -0.2262 C.ar    
   2 C2            -0.0293    -0.0626    -0.0823 C.ar    
   3 C3             1.1574    -0.7302    -0.0700 C.ar    
   4 C4             2.3580    -0.0152    -0.2042 C.ar    
   5 C5             2.3200     1.3962    -0.3513 C.ar    
   6 C6             1.0728     2.0493    -0.3588 C.ar    
   7 C7             3.6039    -0.6703    -0.1955 C.ar    
   8 C8             4.7322     0.0859    -0.3302 C.ar    
   9 C9             4.6266     1.4776    -0.4720 C.ar    
  10 N10            3.4550     2.0829    -0.4794 N.ar    
  11 C11            3.6897    -2.1669    -0.0412 C.3     
  12 C12            5.8607     2.2866    -0.6169 C.2     
  13 O13            6.9474     1.7431    -0.6119 O.2     
  14 N14            5.7771     3.6247    -0.7541 N.am    
  15 C15            6.9964     4.4240    -0.8973 C.3     
  16 C16            7.4216     4.4471    -2.3668 C.3     
  17 C17            6.7282     5.8532    -0.4215 C.3     
  18 C18            8.0016     6.6880    -0.5710 C.3     
  19 C19            8.4268     6.7110    -2.0406 C.3     
  20 C20            8.6950     5.2818    -2.5163 C.3     
  21 O21            6.3311     5.8317     0.9511 O.3     
  22 C22            5.1250    -2.6047    -0.1802 C.2     
  23 C23            6.0885    -2.7670     0.8416 C.2     
  24 N24            7.1831    -3.1584     0.2557 N.2     
  25 O25            7.0369    -3.2572    -0.9406 O.3     
  26 C26            5.7889    -2.9396    -1.3124 C.2     
  27 C27            5.8883    -2.5327     2.3167 C.3     
  28 C28            5.2359    -2.9457    -2.7142 C.3     
  29 H29           -1.0243     1.8285    -0.2370 H       
  30 H30           -0.9519    -0.6144     0.0211 H       
  31 H31            1.1749    -1.8042     0.0429 H       
  32 H32            1.0235     3.1225    -0.4700 H       
  33 H33            5.7038    -0.3858    -0.3272 H       
  34 H34            3.3163    -2.4528     0.9421 H       
  35 H35            3.0871    -2.6469    -0.8123 H       
  36 H36            4.9095     4.0586    -0.7581 H       
  37 H37            7.7919     3.9841    -0.2958 H       
  38 H38            7.6127     3.4289    -2.7058 H       
  39 H39            6.6261     4.8870    -2.9683 H       
  40 H40            5.9327     6.2931    -1.0230 H       
  41 H41            7.8105     7.7062    -0.2320 H       
  42 H42            8.7971     6.2481     0.0305 H       
  43 H43            7.6313     7.1509    -2.6420 H       
  44 H44            9.3340     7.3057    -2.1471 H       
  45 H45            9.4905     4.8420    -1.9148 H       
  46 H46            8.9979     5.2983    -3.5633 H       
  47 H47            6.1443     6.7057     1.3202 H       
  48 H48            5.5516    -3.4557     2.7888 H       
  49 H49            6.8302    -2.2175     2.7657 H       
  50 H50            5.1382    -1.7554     2.4626 H       
  51 H51            6.0361    -3.1706    -3.4194 H       
  52 H52            4.4572    -3.7041    -2.7944 H       
  53 H53            4.8146    -1.9668    -2.9429 H       
@<TRIPOS>BOND
   1    1    2 ar
   2    1    6 ar
   3    1   29 1
   4    2    3 ar
   5    2   30 1
   6    3    4 ar
   7    3   31 1
   8    4    5 ar
   9    4    7 ar
  10    5    6 ar
  11    5   10 ar
  12    6   32 1
  13    7    8 ar
  14    7   11 1
  15    8    9 ar
  16    8   33 1
  17    9   10 ar
  18    9   12 1
  19   11   22 1
  20   11   34 1
  21   11   35 1
  22   12   13 2
  23   12   14 am
  24   14   15 1
  25   14   36 1
  26   15   16 1
  27   15   17 1
  28   15   37 1
  29   16   20 1
  30   16   38 1
  31   16   39 1
  32   17   18 1
  33   17   21 1
  34   17   40 1
  35   18   19 1
  36   18   41 1
  37   18   42 1
  38   19   20 1
  39   19   43 1
  40   19   44 1
  41   20   45 1
  42   20   46 1
  43   21   47 1
  44   22   23 1
  45   22   26 2
  46   23   24 2
  47   23   27 1
  48   24   25 1
  49   25   26 1
  50   26   28 1
  51   27   48 1
  52   27   49 1
  53   27   50 1
  54   28   51 1
  55   28   52 1
  56   28   53 1

#	End of record

