#	Name: ASD01916468
#	Creating user name:	WinNT
#	Creation time:	15. 06. 2019 20:07

#	Modifying user name:	WinNT
#	Modification time:	15. 06. 2019 20:07

#	Program:	/corina/corina34_cracker 3.40 0067  02.08.2006

@<TRIPOS>MOLECULE
ASD01916468
  44   47    0    0    0
SMALL
NO_CHARGES


@<TRIPOS>ATOM
   1 C1             0.2938     1.7182     0.7247 C.ar    
   2 C2             0.1896     0.3078     0.7270 C.ar    
   3 C3            -1.0298    -0.3086     1.0084 C.ar    
   4 C4            -2.1306     0.4527     1.2722 C.ar    
   5 C5            -2.0481     1.8534     1.2605 C.ar    
   6 C6            -0.8380     2.4871     0.9883 C.ar    
   7 N7             1.4980     2.2808     0.4750 N.2     
   8 C8             2.5696     1.5753     0.2139 C.2     
   9 N9             2.5316     0.2234     0.1024 N.am    
  10 C10            1.3981    -0.4613     0.4135 C.2     
  11 C11           -3.2162     2.6367     1.5298 C.1     
  12 C12           -4.1739     3.2789     1.7505 C.1     
  13 C13           -5.3420     4.0623     2.0198 C.ar    
  14 N14           -5.2637     5.3894     2.0086 N.ar    
  15 C15           -6.3151     6.1444     2.2512 C.ar    
  16 C16           -7.5470     5.5799     2.5287 C.ar    
  17 C17           -7.6747     4.1975     2.5508 C.ar    
  18 C18           -6.5573     3.4264     2.2868 C.ar    
  19 O19            1.3873    -1.6785     0.4312 O.2     
  20 C20            3.8627     2.3488     0.0913 C.3     
  21 C21            4.8777     1.5630    -0.7365 C.3     
  22 C22            4.9838     0.1523    -0.1427 C.3     
  23 C23            3.6610    -0.5681    -0.3914 C.3     
  24 C24            3.6812    -1.9183     0.3279 C.3     
  25 C25            3.6702    -1.6904     1.8408 C.3     
  26 H26           -1.1023    -1.3861     1.0171 H       
  27 H27           -3.0733    -0.0266     1.4915 H       
  28 H28           -0.7776     3.5654     0.9812 H       
  29 H29           -6.2140     7.2195     2.2336 H       
  30 H30           -8.4022     6.2090     2.7269 H       
  31 H31           -8.6266     3.7346     2.7651 H       
  32 H32           -6.6212     2.3483     2.2953 H       
  33 H33            3.6661     3.3054    -0.3927 H       
  34 H34            4.2708     2.5286     1.0860 H       
  35 H35            4.5412     1.5027    -1.7715 H       
  36 H36            5.8492     2.0553    -0.6924 H       
  37 H37            5.7954    -0.3908    -0.6269 H       
  38 H38            5.1716     0.2173     0.9291 H       
  39 H39            3.5402    -0.7354    -1.4617 H       
  40 H40            2.8024    -2.4959     0.0411 H       
  41 H41            4.5821    -2.4650     0.0494 H       
  42 H42            4.6003    -1.2088     2.1424 H       
  43 H43            2.8277    -1.0516     2.1059 H       
  44 H44            3.5747    -2.6484     2.3519 H       
@<TRIPOS>BOND
   1    1    2 ar
   2    1    7 1
   3    1    6 ar
   4    2    3 ar
   5    2   10 1
   6    3    4 ar
   7    3   26 1
   8    4    5 ar
   9    4   27 1
  10    5    6 ar
  11    5   11 1
  12    6   28 1
  13    7    8 2
  14    8    9 1
  15    8   20 1
  16    9   10 am
  17    9   23 1
  18   10   19 2
  19   11   12 3
  20   12   13 1
  21   13   14 ar
  22   13   18 ar
  23   14   15 ar
  24   15   16 ar
  25   15   29 1
  26   16   17 ar
  27   16   30 1
  28   17   18 ar
  29   17   31 1
  30   18   32 1
  31   20   21 1
  32   20   33 1
  33   20   34 1
  34   21   22 1
  35   21   35 1
  36   21   36 1
  37   22   23 1
  38   22   37 1
  39   22   38 1
  40   23   24 1
  41   23   39 1
  42   24   25 1
  43   24   40 1
  44   24   41 1
  45   25   42 1
  46   25   43 1
  47   25   44 1

#	End of record

