#	Name: ASD01814404
#	Creating user name:	WinNT
#	Creation time:	15. 06. 2019 19:32

#	Modifying user name:	WinNT
#	Modification time:	15. 06. 2019 19:32

#	Program:	/corina/corina34_cracker 3.40 0067  02.08.2006

@<TRIPOS>MOLECULE
ASD01814404
  62   67    0    0    0
SMALL
NO_CHARGES


@<TRIPOS>ATOM
   1 C1            -0.5959     0.6127     0.3126 C.ar    
   2 C2            -0.3299    -0.7472     0.2760 C.ar    
   3 C3             0.9660    -1.2104     0.1780 C.ar    
   4 C4             2.0212    -0.3085     0.1143 C.ar    
   5 C5             1.7461     1.0725     0.1513 C.ar    
   6 C6             0.4378     1.5259     0.2506 C.ar    
   7 N7             3.3279    -0.7409     0.0163 N.pl3   
   8 N8             4.3356     0.0503    -0.0450 N.2     
   9 C9             4.2379     1.3542    -0.0215 C.2     
  10 C10            2.9000     1.9872     0.0808 C.2     
  11 C11            5.1797     2.4746    -0.0744 C.2     
  12 N12            4.4330     3.5977    -0.0075 N.am    
  13 N13            3.0767     3.2751     0.0843 N.2     
  14 C14            3.5783    -2.1839    -0.0192 C.3     
  15 C15            3.5636    -2.6612    -1.4485 C.ar    
  16 C16            4.7341    -2.6768    -2.1938 C.ar    
  17 C17            4.6780    -3.1225    -3.5030 C.ar    
  18 C18            3.4546    -3.5379    -4.0249 C.ar    
  19 N19            2.3578    -3.5073    -3.2784 N.ar    
  20 C20            2.3848    -3.0931    -2.0280 C.ar    
  21 C21            3.3776    -4.0175    -5.4257 C.ar    
  22 O22            6.3944     2.4068    -0.1611 O.2     
  23 C23            4.9451     4.9002    -0.0273 C.ar    
  24 C24            5.7700     5.3080    -1.0674 C.ar    
  25 C25            6.2737     6.5940    -1.0839 C.ar    
  26 C26            5.9578     7.4749    -0.0661 C.ar    
  27 C27            5.1364     7.0720     0.9713 C.ar    
  28 C28            4.6246     5.7897     0.9906 C.ar    
  29 C29            3.7298     5.3516     2.1212 C.3     
  30 C30            2.1568    -4.4348    -5.9548 C.ar    
  31 C31            2.0876    -4.8799    -7.2575 C.ar    
  32 C32            3.2335    -4.9129    -8.0437 C.ar    
  33 C33            4.4516    -4.4975    -7.5184 C.ar    
  34 C34            4.5247    -4.0466    -6.2179 C.ar    
  35 N35            3.1609    -5.3650    -9.3641 N.am    
  36 C36            2.0700    -5.0974   -10.1090 C.2     
  37 C37            2.0348    -5.4927   -11.5628 C.3     
  38 O38            1.1167    -4.5383    -9.6093 O.2     
  39 H39           -1.6161     0.9593     0.3854 H       
  40 H40           -1.1464    -1.4523     0.3252 H       
  41 H41            1.1600    -2.2724     0.1511 H       
  42 H42            0.2300     2.5854     0.2788 H       
  43 H43            4.5513    -2.3949     0.4244 H       
  44 H44            2.8021    -2.7013     0.5446 H       
  45 H45            5.6679    -2.3483    -1.7619 H       
  46 H46            5.5699    -3.1475    -4.1116 H       
  47 H47            1.4722    -3.0823    -1.4506 H       
  48 H48            6.0177     4.6202    -1.8624 H       
  49 H49            6.9153     6.9117    -1.8925 H       
  50 H50            6.3535     8.4797    -0.0809 H       
  51 H51            4.8916     7.7625     1.7648 H       
  52 H52            2.6918     5.5662     1.8672 H       
  53 H53            3.8496     4.2807     2.2854 H       
  54 H54            4.0007     5.8909     3.0289 H       
  55 H55            1.2663    -4.4096    -5.3443 H       
  56 H56            1.1424    -5.2035    -7.6677 H       
  57 H57            5.3406    -4.5244    -8.1310 H       
  58 H58            5.4714    -3.7239    -5.8103 H       
  59 H59            3.8956    -5.8714    -9.7445 H       
  60 H60            2.9729    -5.9794   -11.8298 H       
  61 H61            1.2071    -6.1815   -11.7320 H       
  62 H62            1.8989    -4.6033   -12.1780 H       
@<TRIPOS>BOND
   1    1    2 ar
   2    1    6 ar
   3    1   39 1
   4    2    3 ar
   5    2   40 1
   6    3    4 ar
   7    3   41 1
   8    4    5 ar
   9    4    7 1
  10    5    6 ar
  11    5   10 1
  12    6   42 1
  13    7    8 1
  14    7   14 1
  15    8    9 2
  16    9   10 1
  17    9   11 1
  18   10   13 2
  19   11   12 am
  20   11   22 2
  21   12   13 1
  22   12   23 1
  23   14   15 1
  24   14   43 1
  25   14   44 1
  26   15   16 ar
  27   15   20 ar
  28   16   17 ar
  29   16   45 1
  30   17   18 ar
  31   17   46 1
  32   18   19 ar
  33   18   21 1
  34   19   20 ar
  35   20   47 1
  36   21   30 ar
  37   21   34 ar
  38   23   24 ar
  39   23   28 ar
  40   24   25 ar
  41   24   48 1
  42   25   26 ar
  43   25   49 1
  44   26   27 ar
  45   26   50 1
  46   27   28 ar
  47   27   51 1
  48   28   29 1
  49   29   52 1
  50   29   53 1
  51   29   54 1
  52   30   31 ar
  53   30   55 1
  54   31   32 ar
  55   31   56 1
  56   32   33 ar
  57   32   35 1
  58   33   34 ar
  59   33   57 1
  60   34   58 1
  61   35   36 am
  62   35   59 1
  63   36   37 1
  64   36   38 2
  65   37   60 1
  66   37   61 1
  67   37   62 1

#	End of record

