#	Name: ASD02198786
#	Creating user name:	WinNT
#	Creation time:	15. 06. 2019 20:20

#	Modifying user name:	WinNT
#	Modification time:	15. 06. 2019 20:20

#	Program:	/corina/corina34_cracker 3.40 0067  02.08.2006

@<TRIPOS>MOLECULE
ASD02198786
  61   65    0    0    0
SMALL
NO_CHARGES


@<TRIPOS>ATOM
   1 C1            -0.0433     1.5017    -0.1150 C.2     
   2 C2            -0.0730     0.1619     0.0975 C.2     
   3 N3             1.0711    -0.5396     0.2598 N.pl3   
   4 N4             2.2356    -0.0048     0.2258 N.2     
   5 C5             2.4070     1.2850     0.0276 C.2     
   6 C6             1.2213     2.1358    -0.1605 C.2     
   7 C7             0.9797    -1.9190     0.4764 C.ar    
   8 C8             1.5816    -2.4909     1.5966 C.ar    
   9 C9             1.4894    -3.8562     1.8082 C.ar    
  10 C10            0.7981    -4.6525     0.9049 C.ar    
  11 C11            0.1989    -4.0801    -0.2113 C.ar    
  12 C12            0.2845    -2.7188    -0.4213 C.ar    
  13 C13            3.7638     1.8675    -0.0051 C.2     
  14 N14            4.3055     2.6078    -1.0181 N.pl3   
  15 N15            5.6074     2.9596    -0.6404 N.2     
  16 C16            5.8514     2.4600     0.5449 C.2     
  17 C17            4.7196     1.7720     0.9825 C.2     
  18 C18            3.6725     2.9521    -2.2192 C.ar    
  19 C19            3.8058     4.2353    -2.7330 C.ar    
  20 C20            3.1808     4.5717    -3.9178 C.ar    
  21 C21            2.4228     3.6321    -4.5923 C.ar    
  22 C22            2.2877     2.3535    -4.0830 C.ar    
  23 C23            2.9150     2.0094    -2.9017 C.ar    
  24 O24            1.3241     3.3391    -0.3483 O.2     
  25 N25            0.7052    -6.0299     1.1175 N.3     
  26 C26           -0.0651    -6.6768     0.0476 C.3     
  27 C27            0.1296    -6.3211     2.4367 C.3     
  28 C28            0.1773    -7.8289     2.6940 C.3     
  29 C29           -0.6126    -8.5536     1.6007 C.3     
  30 C30           -0.0233    -8.1952     0.2336 C.3     
  31 C31           -0.5179   -10.0651     1.8180 C.3     
  32 O32           -1.9817    -8.1473     1.6518 O.3     
  33 O33            2.2580    -1.7095     2.4792 O.3     
  34 C34            2.8492    -2.3634     3.6039 C.3     
  35 H35           -0.9547     2.0653    -0.2496 H       
  36 H36           -1.0228    -0.3506     0.1377 H       
  37 H37            1.9551    -4.3015     2.6750 H       
  38 H38           -0.3384    -4.7011    -0.9128 H       
  39 H39           -0.1821    -2.2763    -1.2889 H       
  40 H40            6.7749     2.5662     1.0946 H       
  41 H41            4.6139     1.2526     1.9235 H       
  42 H42            4.3974     4.9697    -2.2065 H       
  43 H43            3.2838     5.5696    -4.3177 H       
  44 H44            1.9350     3.8975    -5.5185 H       
  45 H45            1.6948     1.6221    -4.6120 H       
  46 H46            2.8094     1.0105    -2.5046 H       
  47 H47           -1.0992    -6.3345     0.0867 H       
  48 H48            0.3669    -6.4172    -0.9188 H       
  49 H49            0.7031    -5.8032     3.2055 H       
  50 H50           -0.9054    -5.9804     2.4646 H       
  51 H51            1.2131    -8.1679     2.6800 H       
  52 H52           -0.2642    -8.0463     3.6666 H       
  53 H53           -0.6080    -8.6743    -0.5517 H       
  54 H54            1.0094    -8.5400     0.1808 H       
  55 H55           -0.9326   -10.3185     2.7937 H       
  56 H56           -1.0805   -10.5801     1.0392 H       
  57 H57            0.5267   -10.3735     1.7759 H       
  58 H58           -2.5420    -8.5681     0.9853 H       
  59 H59            2.0721    -2.8580     4.1865 H       
  60 H60            3.5696    -3.1039     3.2564 H       
  61 H61            3.3570    -1.6269     4.2267 H       
@<TRIPOS>BOND
   1    1    2 2
   2    1    6 1
   3    1   35 1
   4    2    3 1
   5    2   36 1
   6    3    4 1
   7    3    7 1
   8    4    5 2
   9    5    6 1
  10    5   13 1
  11    6   24 2
  12    7    8 ar
  13    7   12 ar
  14    8    9 ar
  15    8   33 1
  16    9   10 ar
  17    9   37 1
  18   10   11 ar
  19   10   25 1
  20   11   12 ar
  21   11   38 1
  22   12   39 1
  23   13   14 1
  24   13   17 2
  25   14   15 1
  26   14   18 1
  27   15   16 2
  28   16   17 1
  29   16   40 1
  30   17   41 1
  31   18   19 ar
  32   18   23 ar
  33   19   20 ar
  34   19   42 1
  35   20   21 ar
  36   20   43 1
  37   21   22 ar
  38   21   44 1
  39   22   23 ar
  40   22   45 1
  41   23   46 1
  42   25   26 1
  43   25   27 1
  44   26   30 1
  45   26   47 1
  46   26   48 1
  47   27   28 1
  48   27   49 1
  49   27   50 1
  50   28   29 1
  51   28   51 1
  52   28   52 1
  53   29   30 1
  54   29   31 1
  55   29   32 1
  56   30   53 1
  57   30   54 1
  58   31   55 1
  59   31   56 1
  60   31   57 1
  61   32   58 1
  62   33   34 1
  63   34   59 1
  64   34   60 1
  65   34   61 1

#	End of record

