#	Name: ASD01890419
#	Creating user name:	WinNT
#	Creation time:	15. 06. 2019 19:50

#	Modifying user name:	WinNT
#	Modification time:	15. 06. 2019 19:50

#	Program:	/corina/corina34_cracker 3.40 0067  02.08.2006

@<TRIPOS>MOLECULE
ASD01890419
  60   61    0    0    0
SMALL
NO_CHARGES


@<TRIPOS>ATOM
   1 C1             0.0437     1.6083     0.2258 C.2     
   2 C2             0.0612     0.1083     0.0823 C.3     
   3 C3             1.4858    -0.3683    -0.0376 C.2     
   4 O4             0.9030     2.1638     0.8684 O.2     
   5 O5            -0.9234     2.3278    -0.3648 O.3     
   6 O6             1.9357    -1.1388     0.7771 O.2     
   7 O7             2.2550     0.0633    -1.0495 O.3     
   8 C8            -0.5881    -0.5293     1.3123 C.3     
   9 C9            -1.9851     0.0607     1.5151 C.3     
  10 C10           -2.5663    -0.4566     2.8057 C.2     
  11 C11           -3.9106    -0.0332     3.2292 C.ar    
  12 C12           -4.4535    -0.5111     4.4262 C.ar    
  13 C13           -5.7135    -0.1093     4.8163 C.ar    
  14 C14           -6.4406     0.7645     4.0268 C.ar    
  15 C15           -5.9104     1.2416     2.8407 C.ar    
  16 C16           -4.6495     0.8537     2.4396 C.ar    
  17 C17           -7.8170     1.1985     4.4608 C.3     
  18 F18           -7.7167     2.3549     5.2418 F       
  19 F19           -8.5995     1.4645     3.3320 F       
  20 F20           -8.4124     0.1791     5.2113 F       
  21 O21           -1.9264    -1.2218     3.4951 O.2     
  22 C22           -0.6966    -2.0185     1.1079 C.ar    
  23 C23           -0.0647    -2.8836     1.9816 C.ar    
  24 C24           -0.1639    -4.2495     1.7946 C.ar    
  25 C25           -0.8957    -4.7508     0.7329 C.ar    
  26 C26           -1.5278    -3.8844    -0.1411 C.ar    
  27 C27           -1.4326    -2.5189     0.0501 C.ar    
  28 Cl28          -1.0202    -6.4662     0.4971 Cl      
  29 C29           -0.8776     3.7678    -0.1840 C.3     
  30 O30            0.1766     4.3262    -1.0117 O.3     
  31 C31           -0.0632     4.4099    -2.3297 C.2     
  32 O32           -1.1191     4.0292    -2.7770 O.2     
  33 C33            0.9844     4.9788    -3.2516 C.3     
  34 C34            3.6169    -0.4373    -1.1022 C.3     
  35 O35            3.6093    -1.8128    -1.5673 O.3     
  36 C36            3.3908    -2.0122    -2.8766 C.2     
  37 O37            3.2118    -1.0686    -3.6098 O.2     
  38 C38            3.3687    -3.4129    -3.4321 C.3     
  39 H39           -0.4940    -0.1778    -0.8110 H       
  40 H40            0.0231    -0.3269     2.1918 H       
  41 H41           -1.9177     1.1478     1.5570 H       
  42 H42           -2.6272    -0.2318     0.6844 H       
  43 H43           -3.8875    -1.1933     5.0431 H       
  44 H44           -6.1343    -0.4778     5.7402 H       
  45 H45           -6.4842     1.9227     2.2297 H       
  46 H46           -4.2352     1.2305     1.5162 H       
  47 H47            0.5068    -2.4922     2.8101 H       
  48 H48            0.3301    -4.9253     2.4770 H       
  49 H49           -2.0992    -4.2752    -0.9701 H       
  50 H50           -1.9297    -1.8426    -0.6296 H       
  51 H51           -1.8349     4.2010    -0.4736 H       
  52 H52           -0.6772     3.9963     0.8628 H       
  53 H53            1.8615     5.2659    -2.6717 H       
  54 H54            1.2664     4.2272    -3.9889 H       
  55 H55            0.5830     5.8548    -3.7611 H       
  56 H56            4.2028     0.1748    -1.7879 H       
  57 H57            4.0592    -0.3928    -0.1070 H       
  58 H58            3.5479    -4.1258    -2.6273 H       
  59 H59            2.3957    -3.6099    -3.8822 H       
  60 H60            4.1466    -3.5160    -4.1887 H       
@<TRIPOS>BOND
   1    1    2 1
   2    1    4 2
   3    1    5 1
   4    2    3 1
   5    2    8 1
   6    2   39 1
   7    3    6 2
   8    3    7 1
   9    5   29 1
  10    7   34 1
  11    8    9 1
  12    8   22 1
  13    8   40 1
  14    9   10 1
  15    9   41 1
  16    9   42 1
  17   10   11 1
  18   10   21 2
  19   11   12 ar
  20   11   16 ar
  21   12   13 ar
  22   12   43 1
  23   13   14 ar
  24   13   44 1
  25   14   15 ar
  26   14   17 1
  27   15   16 ar
  28   15   45 1
  29   16   46 1
  30   17   18 1
  31   17   19 1
  32   17   20 1
  33   22   23 ar
  34   22   27 ar
  35   23   24 ar
  36   23   47 1
  37   24   25 ar
  38   24   48 1
  39   25   26 ar
  40   25   28 1
  41   26   27 ar
  42   26   49 1
  43   27   50 1
  44   29   30 1
  45   29   51 1
  46   29   52 1
  47   30   31 1
  48   31   32 2
  49   31   33 1
  50   33   53 1
  51   33   54 1
  52   33   55 1
  53   34   35 1
  54   34   56 1
  55   34   57 1
  56   35   36 1
  57   36   37 2
  58   36   38 1
  59   38   58 1
  60   38   59 1
  61   38   60 1

#	End of record

