#	Name: ASD02038112
#	Creating user name:	WinNT
#	Creation time:	15. 06. 2019 20:16

#	Modifying user name:	WinNT
#	Modification time:	15. 06. 2019 20:16

#	Program:	/corina/corina34_cracker 3.40 0067  02.08.2006

@<TRIPOS>MOLECULE
ASD02038112
  49   51    0    0    0
SMALL
NO_CHARGES


@<TRIPOS>ATOM
   1 C1            -0.1696     1.1728     0.1082 C.ar    
   2 C2            -0.0899    -0.2183    -0.0066 C.ar    
   3 C3             1.0010     1.9316     0.1999 C.ar    
   4 C4             2.2276     1.3073     0.1767 C.ar    
   5 C5             2.3033    -0.0776     0.0618 C.ar    
   6 C6             1.1399    -0.8361    -0.0292 C.ar    
   7 N7             3.5452    -0.7056     0.0378 N.3     
   8 C8             6.8794    -3.1244     0.9754 C.3     
   9 C9             6.6879    -4.6380     1.0906 C.3     
  10 C10            8.0418    -5.3359     0.9457 C.3     
  11 O11            6.1247    -4.9512     2.3661 O.3     
  12 O12            7.8493    -6.7518     0.9366 O.3     
  13 C13            8.9610    -7.5252     0.8137 C.ar    
  14 C14            8.8460    -8.9073     0.7978 C.ar    
  15 C15            9.9752    -9.6929     0.6729 C.ar    
  16 C16           11.2241    -9.0996     0.5631 C.ar    
  17 C17           11.3390    -7.7175     0.5781 C.ar    
  18 C18           10.2093    -6.9318     0.6985 C.ar    
  19 O19           12.3359    -9.8730     0.4411 O.3     
  20 C20            3.3966    -2.1621    -0.0884 C.3     
  21 C21            4.7810    -2.8065    -0.1911 C.3     
  22 N22            5.5686    -2.4617     1.0007 N.3     
  23 C23            5.7173    -1.0051     1.1269 C.3     
  24 C24            4.3328    -0.3607     1.2296 C.3     
  25 C25           -1.4472     1.8194     0.1261 C.1     
  26 N26           -2.4607     2.3323     0.1402 N.1     
  27 H27           -0.9923    -0.8075    -0.0772 H       
  28 H28            0.9431     3.0064     0.2884 H       
  29 H29            3.1323     1.8929     0.2475 H       
  30 H30            1.2022    -1.9107    -0.1182 H       
  31 H31            7.4821    -2.7697     1.8115 H       
  32 H32            7.3857    -2.8926     0.0383 H       
  33 H33            6.0166    -4.9803     0.3031 H       
  34 H34            8.5116    -5.0271     0.0119 H       
  35 H35            8.6833    -5.0618     1.7832 H       
  36 H36            6.6699    -4.6747     3.1153 H       
  37 H37            7.8735    -9.3693     0.8833 H       
  38 H38            9.8858   -10.7691     0.6613 H       
  39 H39           12.3115    -7.2555     0.4925 H       
  40 H40           10.2988    -5.8556     0.7102 H       
  41 H41           12.5724   -10.0804    -0.4733 H       
  42 H42            2.8781    -2.5520     0.7876 H       
  43 H43            2.8208    -2.3926    -0.9847 H       
  44 H44            4.6742    -3.8894    -0.2556 H       
  45 H45            5.2889    -2.4372    -1.0820 H       
  46 H46            6.2931    -0.7747     2.0232 H       
  47 H47            6.2358    -0.6153     0.2509 H       
  48 H48            4.4396     0.7221     1.2941 H       
  49 H49            3.8250    -0.7301     2.1205 H       
@<TRIPOS>BOND
   1    1    2 ar
   2    1    3 ar
   3    1   25 1
   4    2    6 ar
   5    2   27 1
   6    3    4 ar
   7    3   28 1
   8    4    5 ar
   9    4   29 1
  10    5    6 ar
  11    5    7 1
  12    6   30 1
  13    7   20 1
  14    7   24 1
  15    8    9 1
  16    8   22 1
  17    8   31 1
  18    8   32 1
  19    9   11 1
  20    9   10 1
  21    9   33 1
  22   10   12 1
  23   10   34 1
  24   10   35 1
  25   11   36 1
  26   12   13 1
  27   13   14 ar
  28   13   18 ar
  29   14   15 ar
  30   14   37 1
  31   15   16 ar
  32   15   38 1
  33   16   17 ar
  34   16   19 1
  35   17   18 ar
  36   17   39 1
  37   18   40 1
  38   19   41 1
  39   20   21 1
  40   20   42 1
  41   20   43 1
  42   21   22 1
  43   21   44 1
  44   21   45 1
  45   22   23 1
  46   23   24 1
  47   23   46 1
  48   23   47 1
  49   24   48 1
  50   24   49 1
  51   25   26 3

#	End of record

