#	Name: ASD01200537
#	Creating user name:	WinNT
#	Creation time:	15. 06. 2019 19:09

#	Modifying user name:	WinNT
#	Modification time:	15. 06. 2019 19:09

#	Program:	/corina/corina34_cracker 3.40 0067  02.08.2006

@<TRIPOS>MOLECULE
ASD01200537
  35   37    0    0    0
SMALL
NO_CHARGES


@<TRIPOS>ATOM
   1 N1             2.2306     1.3385     0.5650 N.ar    
   2 C2             2.2417     0.0206     0.5641 C.ar    
   3 C3             1.2056    -0.6960    -0.0211 C.ar    
   4 C4             0.1515    -0.0015    -0.6089 C.ar    
   5 C5             0.1812     1.3834    -0.5848 C.ar    
   6 C6             1.2472     2.0255     0.0169 C.ar    
   7 N7             1.2212    -2.0949    -0.0204 N.am    
   8 C8             0.0667    -2.7816     0.0891 C.2     
   9 O9            -0.9770    -2.1890     0.2854 O.2     
  10 O10           -0.5872    -6.3448    -0.1036 O.3     
  11 C11           -1.0079    -5.0863     0.0576 C.2     
  12 C12            0.0691    -4.2509    -0.0289 C.2     
  13 C13            1.2288    -5.1181    -0.2642 C.2     
  14 C14            0.7440    -6.3842    -0.2968 C.2     
  15 C15           -2.4337    -4.6602     0.2954 C.3     
  16 F16           -3.0609    -4.4242    -0.9326 F       
  17 F17           -3.1149    -5.6723     0.9801 F       
  18 F18           -2.4489    -3.4884     1.0596 F       
  19 C19            1.5465    -7.6075    -0.5097 C.ar    
  20 C20            0.9273    -8.8582    -0.5224 C.ar    
  21 C21            1.6812    -9.9960    -0.7220 C.ar    
  22 C22            3.0497    -9.8990    -0.9095 C.ar    
  23 C23            3.6697    -8.6608    -0.8980 C.ar    
  24 C24            2.9255    -7.5156    -0.7046 C.ar    
  25 Cl25           3.9921   -11.3353    -1.1596 Cl      
  26 H26            3.0647    -0.5074     1.0227 H       
  27 H27           -0.6688    -0.5294    -1.0724 H       
  28 H28           -0.6192     1.9548    -1.0312 H       
  29 H29            1.2753     3.1049     0.0384 H       
  30 H30            2.0629    -2.5705    -0.0987 H       
  31 H31            2.2571    -4.8113    -0.3860 H       
  32 H32           -0.1400    -8.9351    -0.3759 H       
  33 H33            1.2032   -10.9644    -0.7317 H       
  34 H34            4.7374    -8.5913    -1.0448 H       
  35 H35            3.4094    -6.5501    -0.7002 H       
@<TRIPOS>BOND
   1    1    2 ar
   2    1    6 ar
   3    2    3 ar
   4    2   26 1
   5    3    4 ar
   6    3    7 1
   7    4    5 ar
   8    4   27 1
   9    5    6 ar
  10    5   28 1
  11    6   29 1
  12    7    8 am
  13    7   30 1
  14    8    9 2
  15    8   12 1
  16   10   11 1
  17   10   14 1
  18   11   12 2
  19   11   15 1
  20   12   13 1
  21   13   14 2
  22   13   31 1
  23   14   19 1
  24   15   16 1
  25   15   17 1
  26   15   18 1
  27   19   20 ar
  28   19   24 ar
  29   20   21 ar
  30   20   32 1
  31   21   22 ar
  32   21   33 1
  33   22   23 ar
  34   22   25 1
  35   23   24 ar
  36   23   34 1
  37   24   35 1

#	End of record

