#	Name: ASD01911422
#	Creating user name:	WinNT
#	Creation time:	15. 06. 2019 19:57

#	Modifying user name:	WinNT
#	Modification time:	15. 06. 2019 19:57

#	Program:	/corina/corina34_cracker 3.40 0067  02.08.2006

@<TRIPOS>MOLECULE
ASD01911422
  34   36    0    0    0
SMALL
NO_CHARGES


@<TRIPOS>ATOM
   1 N1            -0.0079     1.4083    -0.0033 N.2     
   2 N2            -0.0062     0.0083    -0.0447 N.pl3   
   3 C3             1.2407     1.8248     0.0377 C.2     
   4 C4             2.0820     0.6992     0.0238 C.2     
   5 C5             1.2914    -0.4111    -0.0272 C.2     
   6 C6             1.7570    -1.8155    -0.0575 C.ar    
   7 C7             1.6833     3.2400     0.0897 C.ar    
   8 N8             2.9790     3.5224     0.1274 N.ar    
   9 C9            -1.1896    -0.8536    -0.0974 C.3     
  10 C10           -1.6270    -1.0192    -1.5300 C.2     
  11 O11           -2.6985    -1.7732    -1.8216 O.3     
  12 O12           -1.0132    -0.4733    -2.4160 O.2     
  13 C13            3.4144     4.7649     0.1737 C.ar    
  14 C14            2.5271     5.8285     0.1852 C.ar    
  15 C15            1.1613     5.5756     0.1468 C.ar    
  16 C16            0.7348     4.2601     0.0927 C.ar    
  17 F17            2.9849     7.0986     0.2337 F       
  18 C18            0.9326    -2.8151    -0.5746 C.ar    
  19 C19            3.0240    -2.1434     0.4256 C.ar    
  20 C20            3.4533    -3.4539     0.3951 C.ar    
  21 C21            2.6284    -4.4440    -0.1142 C.ar    
  22 C22            1.3712    -4.1226    -0.6006 C.ar    
  23 F23            3.0534    -5.7261    -0.1419 F       
  24 H24            3.1617     0.7112     0.0485 H       
  25 H25           -0.9474    -1.8294     0.3237 H       
  26 H26           -1.9959    -0.3994     0.4785 H       
  27 H27           -2.9407    -1.8497    -2.7547 H       
  28 H28            4.4768     4.9567     0.2034 H       
  29 H29            0.4489     6.3872     0.1551 H       
  30 H30           -0.3194     4.0274     0.0615 H       
  31 H31           -0.0475    -2.5657    -0.9535 H       
  32 H32            3.6678    -1.3724     0.8224 H       
  33 H33            4.4341    -3.7087     0.7685 H       
  34 H34            0.7319    -4.8979    -0.9962 H       
@<TRIPOS>BOND
   1    1    2 1
   2    1    3 2
   3    2    9 1
   4    2    5 1
   5    3    4 1
   6    3    7 1
   7    4    5 2
   8    4   24 1
   9    5    6 1
  10    6   18 ar
  11    6   19 ar
  12    7    8 ar
  13    7   16 ar
  14    8   13 ar
  15    9   10 1
  16    9   25 1
  17    9   26 1
  18   10   11 1
  19   10   12 2
  20   11   27 1
  21   13   14 ar
  22   13   28 1
  23   14   15 ar
  24   14   17 1
  25   15   16 ar
  26   15   29 1
  27   16   30 1
  28   18   22 ar
  29   18   31 1
  30   19   20 ar
  31   19   32 1
  32   20   21 ar
  33   20   33 1
  34   21   22 ar
  35   21   23 1
  36   22   34 1

#	End of record

