#	Name: ASD01916188
#	Creating user name:	WinNT
#	Creation time:	15. 06. 2019 20:06

#	Modifying user name:	WinNT
#	Modification time:	15. 06. 2019 20:06

#	Program:	/corina/corina34_cracker 3.40 0067  02.08.2006

@<TRIPOS>MOLECULE
ASD01916188
  43   46    0    0    0
SMALL
NO_CHARGES


@<TRIPOS>ATOM
   1 C1             0.1245     2.2824     2.9098 C.ar    
   2 C2             0.1825     1.1308     3.6996 C.ar    
   3 C3             1.4192     0.5460     3.9856 C.ar    
   4 C4             2.5751     1.1062     3.4884 C.ar    
   5 C5             2.5129     2.2515     2.7039 C.ar    
   6 C6             1.2853     2.8360     2.4167 C.ar    
   7 O7             3.6546     2.8007     2.2162 O.3     
   8 C8             3.5186     3.9774     1.4169 C.3     
   9 C9             4.8808     4.4400     0.9681 C.2     
  10 N10            5.1292     5.5127     0.2046 N.2     
  11 C11            6.4265     5.6164     0.0094 C.2     
  12 N12            7.0437     4.5785     0.6664 N.am    
  13 C13            6.0518     3.8468     1.2727 C.2     
  14 C14            7.2546     6.5728    -0.7297 C.2     
  15 C15            8.5897     6.3938    -0.7339 C.2     
  16 N16            9.1424     5.3325    -0.0546 N.am    
  17 C17            8.3810     4.4568     0.6233 C.2     
  18 O18            8.9137     3.5340     1.2090 O.2     
  19 C19           10.5323     5.1608    -0.0698 C.ar    
  20 C20           11.3172     5.7539     0.9101 C.ar    
  21 C21           12.6878     5.5827     0.8923 C.ar    
  22 C22           13.2781     4.8218    -0.0997 C.ar    
  23 C23           12.4990     4.2301    -1.0774 C.ar    
  24 C24           11.1278     4.3924    -1.0616 C.ar    
  25 C25           13.5405     6.2264     1.9551 C.3     
  26 F26           13.6797     5.3492     3.0360 F       
  27 F27           14.8023     6.5191     1.4266 F       
  28 F28           12.9311     7.4085     2.3894 F       
  29 C29           -1.0218     0.5521     4.2148 C.1     
  30 N30           -1.9771     0.0930     4.6235 N.1     
  31 H31           -0.8295     2.7349     2.6827 H       
  32 H32            1.4685    -0.3437     4.5958 H       
  33 H33            3.5311     0.6550     3.7089 H       
  34 H34            1.2414     3.7261     1.8065 H       
  35 H35            2.9046     3.7549     0.5442 H       
  36 H36            3.0436     4.7629     2.0047 H       
  37 H37            6.1847     2.9598     1.8743 H       
  38 H38            6.8056     7.4007    -1.2583 H       
  39 H39            9.2256     7.0825    -1.2703 H       
  40 H40           10.8567     6.3486     1.6850 H       
  41 H41           14.3499     4.6895    -0.1114 H       
  42 H42           12.9632     3.6366    -1.8512 H       
  43 H43           10.5199     3.9301    -1.8253 H       
@<TRIPOS>BOND
   1    1    2 ar
   2    1    6 ar
   3    1   31 1
   4    2    3 ar
   5    2   29 1
   6    3    4 ar
   7    3   32 1
   8    4    5 ar
   9    4   33 1
  10    5    6 ar
  11    5    7 1
  12    6   34 1
  13    7    8 1
  14    8    9 1
  15    8   35 1
  16    8   36 1
  17    9   10 1
  18    9   13 2
  19   10   11 2
  20   11   12 1
  21   11   14 1
  22   12   13 1
  23   12   17 am
  24   13   37 1
  25   14   15 2
  26   14   38 1
  27   15   16 1
  28   15   39 1
  29   16   17 am
  30   16   19 1
  31   17   18 2
  32   19   20 ar
  33   19   24 ar
  34   20   21 ar
  35   20   40 1
  36   21   22 ar
  37   21   25 1
  38   22   23 ar
  39   22   41 1
  40   23   24 ar
  41   23   42 1
  42   24   43 1
  43   25   26 1
  44   25   27 1
  45   25   28 1
  46   29   30 3

#	End of record

