#	Name: ASD00310035
#	Creating user name:	WinNT
#	Creation time:	15. 06. 2019 18:33

#	Modifying user name:	WinNT
#	Modification time:	15. 06. 2019 18:33

#	Program:	/corina/corina34_cracker 3.40 0067  02.08.2006

@<TRIPOS>MOLECULE
ASD00310035
  46   48    0    0    0
SMALL
NO_CHARGES


@<TRIPOS>ATOM
   1 C1            -0.0173     1.4248     0.0099 C.3     
   2 O2             0.0021    -0.0041     0.0020 O.3     
   3 C3             1.4181     1.9544    -0.0010 C.3     
   4 C4             1.5084     3.4895     0.0064 C.3     
   5 C5             1.4948     3.4045     1.5418 C.3     
   6 C6             2.0730     1.9876     1.3900 C.3     
   7 C7             2.2737     1.3044    -1.0577 C.ar    
   8 C8             2.3148    -0.0750    -1.1589 C.ar    
   9 C9             3.0964    -0.6754    -2.1245 C.ar    
  10 C10            3.8451     0.1104    -2.9992 C.ar    
  11 C11            3.7995     1.4995    -2.8930 C.ar    
  12 C12            3.0107     2.0893    -1.9267 C.ar    
  13 O13            5.5649     0.0819    -5.0754 O.3     
  14 B14            4.7368    -0.5668    -4.0998 Du      
  15 O15            4.9024    -1.9698    -4.3498 O.3     
  16 C16            6.3050    -2.1237    -4.6527 C.3     
  17 C17            6.7542    -0.7327    -5.1446 C.3     
  18 C18            7.2609    -0.8150    -6.5860 C.3     
  19 C19            7.8411    -0.1683    -4.2276 C.3     
  20 C20            7.0814    -2.5209    -3.3956 C.3     
  21 C21            6.5012    -3.1676    -5.7540 C.3     
  22 H22           -0.5445     1.7859    -0.8732 H       
  23 H23           -0.5275     1.7763     0.9067 H       
  24 H24           -0.8759    -0.4094     0.0082 H       
  25 H25            2.4433     3.8739    -0.4014 H       
  26 H26            0.6296     3.9806    -0.4115 H       
  27 H27            2.1767     4.1050     2.0239 H       
  28 H28            0.4932     3.4236     1.9713 H       
  29 H29            1.6500     1.2662     2.0891 H       
  30 H30            3.1622     1.9614     1.3605 H       
  31 H31            1.7344    -0.6828    -0.4807 H       
  32 H32            3.1284    -1.7521    -2.2022 H       
  33 H33            4.3778     2.1129    -3.5679 H       
  34 H34            2.9717     3.1656    -1.8459 H       
  35 H35            7.5195     0.1838    -6.9377 H       
  36 H36            8.1432    -1.4538    -6.6251 H       
  37 H37            6.4808    -1.2335    -7.2220 H       
  38 H38            7.4695    -0.1317    -3.2035 H       
  39 H39            8.7222    -0.8085    -4.2717 H       
  40 H40            8.1059     0.8373    -4.5542 H       
  41 H41            6.7124    -3.4784    -3.0280 H       
  42 H42            8.1412    -2.6079    -3.6354 H       
  43 H43            6.9439    -1.7595    -2.6279 H       
  44 H44            5.9552    -2.8614    -6.6463 H       
  45 H45            7.5622    -3.2532    -5.9887 H       
  46 H46            6.1259    -4.1320    -5.4115 H       
@<TRIPOS>BOND
   1    1    2 1
   2    1    3 1
   3    1   22 1
   4    1   23 1
   5    2   24 1
   6    3    4 1
   7    3    6 1
   8    3    7 1
   9    4    5 1
  10    4   25 1
  11    4   26 1
  12    5    6 1
  13    5   27 1
  14    5   28 1
  15    6   29 1
  16    6   30 1
  17    7    8 ar
  18    7   12 ar
  19    8    9 ar
  20    8   31 1
  21    9   10 ar
  22    9   32 1
  23   10   11 ar
  24   10   14 1
  25   11   12 ar
  26   11   33 1
  27   12   34 1
  28   13   14 1
  29   13   17 1
  30   14   15 1
  31   15   16 1
  32   16   17 1
  33   16   20 1
  34   16   21 1
  35   17   18 1
  36   17   19 1
  37   18   35 1
  38   18   36 1
  39   18   37 1
  40   19   38 1
  41   19   39 1
  42   19   40 1
  43   20   41 1
  44   20   42 1
  45   20   43 1
  46   21   44 1
  47   21   45 1
  48   21   46 1

#	End of record

