#	Name: ASD01900422
#	Creating user name:	WinNT
#	Creation time:	15. 06. 2019 19:51

#	Modifying user name:	WinNT
#	Modification time:	15. 06. 2019 19:51

#	Program:	/corina/corina34_cracker 3.40 0067  02.08.2006

@<TRIPOS>MOLECULE
ASD01900422
  35   38    0    0    0
SMALL
NO_CHARGES


@<TRIPOS>ATOM
   1 O1             0.1487     1.2850     0.8525 O.3     
   2 C2             0.1275    -0.0591     0.6389 C.ar    
   3 C3             1.0091    -0.6198    -0.2847 C.ar    
   4 N4             1.8993     0.2140    -0.9764 N.am    
   5 C5             2.1093     1.4685    -0.5216 C.2     
   6 C6             1.4170     1.9346     0.7338 C.3     
   7 C7             0.9993    -1.9851    -0.5119 C.ar    
   8 C8             0.1081    -2.7935     0.1829 C.ar    
   9 C9            -0.7692    -2.2318     1.1012 C.ar    
  10 C10           -0.7579    -0.8678     1.3290 C.ar    
  11 O11            2.8523     2.2169    -1.1208 O.2     
  12 C12            2.5915    -0.2683    -2.1740 C.3     
  13 N13            0.0943    -4.1742    -0.0431 N.pl3   
  14 C14           -1.2326    -6.3535     0.0346 C.ar    
  15 C15           -2.5923    -6.6280     0.2757 C.ar    
  16 C16           -3.0295    -7.9520     0.2565 C.ar    
  17 C17           -2.1020    -8.9426    -0.0001 C.ar    
  18 C18           -0.7760    -8.5993    -0.2292 C.ar    
  19 N19           -0.3805    -7.3468    -0.2076 N.ar    
  20 N20           -2.2680    -4.3985     0.3882 N.2     
  21 N21           -3.2123    -5.4253     0.4899 N.pl3   
  22 C22           -1.0895    -4.8987     0.1268 C.2     
  23 H23            1.2691     3.0135     0.6874 H       
  24 H24            2.0324     1.6901     1.5996 H       
  25 H25            1.6817    -2.4204    -1.2269 H       
  26 H26           -1.4618    -2.8619     1.6395 H       
  27 H27           -1.4409    -0.4338     2.0442 H       
  28 H28            1.9897    -0.0469    -3.0554 H       
  29 H29            3.5580     0.2284    -2.2598 H       
  30 H30            2.7419    -1.3452    -2.0978 H       
  31 H31            0.9060    -4.6289    -0.3176 H       
  32 H32           -4.0657    -8.1963     0.4378 H       
  33 H33           -2.4062    -9.9786    -0.0220 H       
  34 H34           -0.0551    -9.3781    -0.4294 H       
  35 H35           -4.1556    -5.3050     0.6812 H       
@<TRIPOS>BOND
   1    1    2 1
   2    1    6 1
   3    2    3 ar
   4    2   10 ar
   5    3    4 1
   6    3    7 ar
   7    4    5 am
   8    4   12 1
   9    5    6 1
  10    5   11 2
  11    6   23 1
  12    6   24 1
  13    7    8 ar
  14    7   25 1
  15    8    9 ar
  16    8   13 1
  17    9   10 ar
  18    9   26 1
  19   10   27 1
  20   12   28 1
  21   12   29 1
  22   12   30 1
  23   13   22 1
  24   13   31 1
  25   14   15 ar
  26   14   19 ar
  27   14   22 1
  28   15   16 ar
  29   15   21 1
  30   16   17 ar
  31   16   32 1
  32   17   18 ar
  33   17   33 1
  34   18   19 ar
  35   18   34 1
  36   20   21 1
  37   20   22 2
  38   21   35 1

#	End of record

