#	Name: ASD00843366
#	Creating user name:	WinNT
#	Creation time:	15. 06. 2019 18:46

#	Modifying user name:	WinNT
#	Modification time:	15. 06. 2019 18:46

#	Program:	/corina/corina34_cracker 3.40 0067  02.08.2006

@<TRIPOS>MOLECULE
ASD00843366
  88   93    0    0    0
SMALL
NO_CHARGES


@<TRIPOS>ATOM
   1 N1             0.7313     1.1443    -0.6407 N.ar    
   2 C2             0.9490    -0.1456    -0.8352 C.ar    
   3 C3             0.8664    -1.0445     0.2208 C.ar    
   4 C4             0.5527    -0.5729     1.4834 C.ar    
   5 C5             0.3315     0.7880     1.6458 C.ar    
   6 C6             0.4304     1.6236     0.5514 C.ar    
   7 C7             1.1147    -2.5135    -0.0057 C.3     
   8 C8             0.8327    -3.3002     1.2566 C.2     
   9 C9             0.2558    -3.0292    -1.1621 C.3     
  10 C10           -1.1909    -2.6993    -0.8993 C.2     
  11 N11           -2.1435    -3.1151    -1.7572 N.am    
  12 O12           -1.4980    -2.0596     0.0843 O.2     
  13 C13           -3.5424    -2.7022    -1.5801 C.3     
  14 C14           -4.4259    -3.9533    -1.5512 C.3     
  15 C15           -4.1702    -4.7828    -2.8116 C.3     
  16 C16           -2.7058    -5.2262    -2.8441 C.3     
  17 C17           -1.8019    -3.9849    -2.8909 C.3     
  18 N18           -5.0399    -5.9666    -2.8033 N.3     
  19 C19           -4.9082    -6.7257    -4.0547 C.3     
  20 C20           -5.7673    -7.9898    -3.9743 C.3     
  21 N21           -7.1675    -7.6129    -3.7352 N.3     
  22 C22           -7.2992    -6.8538    -2.4838 C.3     
  23 C23           -6.4401    -5.5897    -2.5642 C.3     
  24 H24           -7.5400    -7.0921    -4.5150 H       
  25 O25           -0.2313    -3.3790     1.8333 O.2     
  26 N26            1.9816    -3.8951     1.6179 N.am    
  27 C27            2.5804    -2.7678    -0.2758 C.ar    
  28 C28            3.0257    -3.6056     0.7438 C.ar    
  29 C29            3.4319    -2.3416    -1.2633 C.ar    
  30 C30            4.7702    -2.7508    -1.2528 C.ar    
  31 C31            5.2249    -3.5931    -0.2309 C.ar    
  32 C32            4.3590    -4.0154     0.7549 C.ar    
  33 F33            6.5150    -3.9937    -0.2118 F       
  34 C34            1.7839    -6.5126     2.4450 C.ar    
  35 C35            0.5107    -6.8455     2.0065 C.ar    
  36 C36            2.7753    -7.4743     2.4780 C.ar    
  37 C37            2.4994    -8.7673     2.0741 C.ar    
  38 C38            1.2309    -9.1017     1.6366 C.ar    
  39 C39            0.2362    -8.1441     1.6021 C.ar    
  40 H40            1.0178   -10.1126     1.3215 H       
  41 O41           -0.4663    -5.9014     1.9735 O.3     
  42 C42           -1.7533    -6.3156     1.5107 C.3     
  43 C43           -2.7146    -5.1258     1.5443 C.3     
  44 C44            5.6672    -2.3121    -2.2792 C.1     
  45 N45            6.3787    -1.9640    -3.0935 N.1     
  46 O46            1.2553    -0.5954    -2.0780 O.3     
  47 C47            1.2434     0.3645    -3.1366 C.3     
  48 C48            1.7064    -0.3013    -4.4340 C.3     
  49 F49            2.9683    -0.8734    -4.2400 F       
  50 F50            0.7940    -1.2972    -4.7985 F       
  51 S51            2.1384    -4.8629     2.9525 S.o2    
  52 O52            3.5145    -4.8389     3.3062 O.2     
  53 O53            1.0997    -4.4859     3.8458 O.2     
  54 H54            0.4812    -1.2481     2.3232 H       
  55 H55            0.0844     1.1886     2.6178 H       
  56 H56            0.2596     2.6832     0.6724 H       
  57 H57            0.5738    -2.5548    -2.0905 H       
  58 H58            0.3724    -4.1095    -1.2476 H       
  59 H59           -3.6470    -2.1592    -0.6407 H       
  60 H60           -3.8424    -2.0621    -2.4098 H       
  61 H61           -4.1861    -4.5478    -0.6696 H       
  62 H62           -5.4745    -3.6575    -1.5168 H       
  63 H63           -4.3866    -4.1796    -3.6933 H       
  64 H64           -2.4821    -5.8087    -1.9504 H       
  65 H65           -2.5301    -5.8364    -3.7301 H       
  66 H66           -1.9612    -3.4520    -3.8283 H       
  67 H67           -0.7582    -4.2898    -2.8145 H       
  68 H68           -5.2432    -6.1108    -4.8900 H       
  69 H69           -3.8648    -7.0040    -4.2030 H       
  70 H70           -5.6938    -8.5397    -4.9125 H       
  71 H71           -5.4149    -8.6176    -3.1559 H       
  72 H72           -8.3426    -6.5755    -2.3354 H       
  73 H73           -6.9642    -7.4687    -1.6485 H       
  74 H74           -6.5136    -5.0398    -1.6260 H       
  75 H75           -6.7925    -4.9619    -3.3826 H       
  76 H76            3.0705    -1.6923    -2.0470 H       
  77 H77            4.7150    -4.6652     1.5407 H       
  78 H78            3.7668    -7.2156     2.8193 H       
  79 H79            3.2759    -9.5175     2.1000 H       
  80 H80           -0.7545    -8.4059     1.2610 H       
  81 H81           -1.6700    -6.6866     0.4892 H       
  82 H82           -2.1335    -7.1082     2.1553 H       
  83 H83           -2.7979    -4.7547     2.5658 H       
  84 H84           -2.3344    -4.3332     0.8997 H       
  85 H85           -3.6962    -5.4417     1.1913 H       
  86 H86            0.2320     0.7495    -3.2666 H       
  87 H87            1.9160     1.1860    -2.8897 H       
  88 H88            1.7640     0.4460    -5.2254 H       
@<TRIPOS>BOND
   1    1    2 ar
   2    1    6 ar
   3    2    3 ar
   4    2   46 1
   5    3    4 ar
   6    3    7 1
   7    4    5 ar
   8    4   54 1
   9    5    6 ar
  10    5   55 1
  11    6   56 1
  12    7    8 1
  13    7    9 1
  14    7   27 1
  15    8   25 2
  16    8   26 am
  17    9   10 1
  18    9   57 1
  19    9   58 1
  20   10   11 am
  21   10   12 2
  22   11   13 1
  23   11   17 1
  24   13   14 1
  25   13   59 1
  26   13   60 1
  27   14   15 1
  28   14   61 1
  29   14   62 1
  30   15   16 1
  31   15   18 1
  32   15   63 1
  33   16   17 1
  34   16   64 1
  35   16   65 1
  36   17   66 1
  37   17   67 1
  38   18   19 1
  39   18   23 1
  40   19   20 1
  41   19   68 1
  42   19   69 1
  43   20   21 1
  44   20   70 1
  45   20   71 1
  46   21   22 1
  47   21   24 1
  48   22   23 1
  49   22   72 1
  50   22   73 1
  51   23   74 1
  52   23   75 1
  53   26   51 am
  54   26   28 1
  55   27   28 ar
  56   27   29 ar
  57   28   32 ar
  58   29   30 ar
  59   29   76 1
  60   30   31 ar
  61   30   44 1
  62   31   32 ar
  63   31   33 1
  64   32   77 1
  65   34   35 ar
  66   34   36 ar
  67   34   51 1
  68   35   41 1
  69   35   39 ar
  70   36   37 ar
  71   36   78 1
  72   37   38 ar
  73   37   79 1
  74   38   39 ar
  75   38   40 1
  76   39   80 1
  77   41   42 1
  78   42   43 1
  79   42   81 1
  80   42   82 1
  81   43   83 1
  82   43   84 1
  83   43   85 1
  84   44   45 3
  85   46   47 1
  86   47   48 1
  87   47   86 1
  88   47   87 1
  89   48   49 1
  90   48   50 1
  91   48   88 1
  92   51   52 2
  93   51   53 2

#	End of record

