#	Name: ASD03930040
#	Creating user name:	WinNT
#	Creation time:	15. 06. 2019 20:47

#	Modifying user name:	WinNT
#	Modification time:	15. 06. 2019 20:47

#	Program:	/corina/corina34_cracker 3.40 0067  02.08.2006

@<TRIPOS>MOLECULE
ASD03930040
  24   26    0    0    0
SMALL
NO_CHARGES


@<TRIPOS>ATOM
   1 C1            -0.0167     1.3785     0.0096 C.ar    
   2 C2             0.0021    -0.0041     0.0020 C.ar    
   3 C3            -1.1562    -0.7752    -0.0005 C.ar    
   4 C4            -2.3751    -0.1587     0.0046 C.ar    
   5 C5            -2.3720     1.2352     0.0303 C.ar    
   6 C6            -1.2423     2.0390     0.0307 C.ar    
   7 C7            -3.6862    -0.8896    -0.0445 C.3     
   8 N8            -4.7788    -0.1651     0.6153 N.am    
   9 S9            -5.1387     1.4080     0.1603 S.o2    
  10 C10           -3.5364     2.1513     0.0977 C.2     
  11 O11           -1.6877     3.3117     0.0411 O.3     
  12 C12           -3.0471     3.3607     0.0962 C.2     
  13 O13           -5.6306     1.3576    -1.1719 O.2     
  14 O14           -5.8379     2.0083     1.2420 O.2     
  15 C15           -5.5560    -0.8172     1.6722 C.3     
  16 Cl16           1.4677     2.2786     0.0003 Cl      
  17 H17            0.9576    -0.5075    -0.0026 H       
  18 H18           -1.0920    -1.8532    -0.0067 H       
  19 H19           -3.9558    -1.0551    -1.0876 H       
  20 H20           -3.5653    -1.8581     0.4409 H       
  21 H21           -3.6336     4.2668     0.1350 H       
  22 H22           -5.0890    -0.6248     2.6380 H       
  23 H23           -6.5713    -0.4205     1.6740 H       
  24 H24           -5.5861    -1.8916     1.4907 H       
@<TRIPOS>BOND
   1    1    2 ar
   2    1   16 1
   3    1    6 ar
   4    2    3 ar
   5    2   17 1
   6    3    4 ar
   7    3   18 1
   8    4    5 ar
   9    4    7 1
  10    5    6 ar
  11    5   10 1
  12    6   11 1
  13    7    8 1
  14    7   19 1
  15    7   20 1
  16    8    9 am
  17    8   15 1
  18    9   10 1
  19    9   13 2
  20    9   14 2
  21   10   12 2
  22   11   12 1
  23   12   21 1
  24   15   22 1
  25   15   23 1
  26   15   24 1

#	End of record

