#	Name: ASD09260002
#	Creating user name:	WinNT
#	Creation time:	15. 06. 2019 21:21

#	Modifying user name:	WinNT
#	Modification time:	15. 06. 2019 21:21

#	Program:	/corina/corina34_cracker 3.40 0067  02.08.2006

@<TRIPOS>MOLECULE
ASD09260002
  37   39    0    0    0
SMALL
NO_CHARGES


@<TRIPOS>ATOM
   1 C1            -0.0166     1.3747     0.0096 C.ar    
   2 C2             0.0021    -0.0041     0.0020 C.ar    
   3 C3             1.2140    -0.6845    -0.0132 C.ar    
   4 C4             2.4087     0.0485    -0.0206 C.ar    
   5 C5             2.3784     1.4390    -0.0129 C.ar    
   6 C6             1.1664     2.0966     0.0022 C.ar    
   7 O7             1.5182    -2.0010    -0.0232 O.3     
   8 C8             2.8544    -2.2015    -0.0370 C.ar    
   9 C9             3.4918    -0.9531    -0.0364 C.ar    
  10 C10            3.6274    -3.3565    -0.0506 C.ar    
  11 C11            5.0033    -3.2675    -0.0632 C.ar    
  12 C12            5.6306    -2.0317    -0.0626 C.ar    
  13 C13            4.8804    -0.8747    -0.0499 C.ar    
  14 C14            2.9607    -4.7081    -0.0510 C.3     
  15 C15            2.6082    -5.1024    -1.4867 C.3     
  16 C16            1.9416    -6.4539    -1.4871 C.2     
  17 C17           -1.2932    -0.7742     0.0107 C.3     
  18 C18           -1.6531    -1.1506     1.4494 C.3     
  19 N19           -2.9158    -1.9014     1.4579 N.3     
  20 O20            0.8571    -6.5921    -2.0000 O.2     
  21 H21           -0.9620     1.8968     0.0169 H       
  22 H22            3.3004     2.0014    -0.0190 H       
  23 H23            1.1390     3.1762     0.0083 H       
  24 H24            5.5977    -4.1692    -0.0734 H       
  25 H25            6.7091    -1.9747    -0.0726 H       
  26 H26            5.3691     0.0884    -0.0497 H       
  27 H27            3.6395    -5.4481     0.3728 H       
  28 H28            2.0509    -4.6646     0.5477 H       
  29 H29            1.9294    -4.3623    -1.9105 H       
  30 H30            3.5180    -5.1459    -2.0853 H       
  31 H31            2.4337    -7.2989    -1.0286 H       
  32 H32           -2.0858    -0.1570    -0.4124 H       
  33 H33           -1.1812    -1.6803    -0.5847 H       
  34 H34           -0.8606    -1.7678     1.8725 H       
  35 H35           -1.7651    -0.2445     2.0448 H       
  36 H36           -2.8581    -2.7126     0.8607 H       
  37 H37           -3.1753    -2.1618     2.3975 H       
@<TRIPOS>BOND
   1    1    2 ar
   2    1    6 ar
   3    1   21 1
   4    2    3 ar
   5    2   17 1
   6    3    4 ar
   7    3    7 1
   8    4    5 ar
   9    4    9 1
  10    5    6 ar
  11    5   22 1
  12    6   23 1
  13    7    8 1
  14    8    9 ar
  15    8   10 ar
  16    9   13 ar
  17   10   11 ar
  18   10   14 1
  19   11   12 ar
  20   11   24 1
  21   12   13 ar
  22   12   25 1
  23   13   26 1
  24   14   15 1
  25   14   27 1
  26   14   28 1
  27   15   16 1
  28   15   29 1
  29   15   30 1
  30   16   20 2
  31   16   31 1
  32   17   18 1
  33   17   32 1
  34   17   33 1
  35   18   19 1
  36   18   34 1
  37   18   35 1
  38   19   36 1
  39   19   37 1

#	End of record

