#	Name: ASD01917408
#	Creating user name:	WinNT
#	Creation time:	15. 06. 2019 20:09

#	Modifying user name:	WinNT
#	Modification time:	15. 06. 2019 20:09

#	Program:	/corina/corina34_cracker 3.40 0067  02.08.2006

@<TRIPOS>MOLECULE
ASD01917408
  55   57    0    0    0
SMALL
NO_CHARGES


@<TRIPOS>ATOM
   1 C1            -0.0162     1.3436     0.0094 C.2     
   2 N2             0.0021    -0.0041     0.0020 N.am    
   3 O3             1.0277     1.9654     0.0028 O.2     
   4 O4            -1.1912     2.0008     0.0186 O.3     
   5 C5             1.2806    -0.7192    -0.0140 C.3     
   6 C6             2.1612    -0.3805     1.2015 C.3     
   7 C7             3.5588    -0.9630     0.9824 C.3     
   8 C8             3.4731    -2.4680     0.7211 C.3     
   9 C9             2.5360    -2.7169    -0.4737 C.3     
  10 C10            2.9156    -1.7040    -1.5785 C.3     
  11 C11            2.1116    -0.4247    -1.2842 C.3     
  12 C12            1.1199    -2.2624    -0.0315 C.3     
  13 N13            2.5789    -4.1045    -0.9416 N.am    
  14 C14            3.7420    -4.6366    -1.3668 C.2     
  15 O15            4.7549    -3.9653    -1.3620 O.2     
  16 C16            3.7854    -6.0400    -1.8400 C.ar    
  17 C17            4.9906    -6.5841    -2.2782 C.ar    
  18 C18            5.0157    -7.8983    -2.7174 C.ar    
  19 C19            3.8339    -8.6229    -2.7032 C.ar    
  20 C20            2.6714    -8.0174    -2.2539 C.ar    
  21 N21            2.6769    -6.7698    -1.8377 N.ar    
  22 C22            1.3842    -8.8010    -2.2365 C.3     
  23 C23           -1.1349     3.4517     0.0262 C.3     
  24 C24           -0.4003     3.9401    -1.2239 C.3     
  25 C25           -2.5565     4.0172     0.0360 C.3     
  26 C26           -0.3885     3.9266     1.2745 C.3     
  27 H27           -0.8313    -0.5005     0.0073 H       
  28 H28            2.2303     0.7018     1.3114 H       
  29 H29            1.7230    -0.8126     2.1011 H       
  30 H30            4.0232    -0.4741     0.1259 H       
  31 H31            4.1669    -0.7849     1.8693 H       
  32 H32            4.4659    -2.8557     0.4929 H       
  33 H33            3.0784    -2.9696     1.6047 H       
  34 H34            3.9841    -1.4919    -1.5412 H       
  35 H35            2.6455    -2.0992    -2.5578 H       
  36 H36            1.4502    -0.1972    -2.1202 H       
  37 H37            2.7887     0.4101    -1.1036 H       
  38 H38            0.8802    -2.6416     0.9619 H       
  39 H39            0.3666    -2.5687    -0.7573 H       
  40 H40            1.7704    -4.6403    -0.9454 H       
  41 H41            5.8927    -5.9902    -2.2759 H       
  42 H42            5.9348    -8.3476    -3.0633 H       
  43 H43            3.8194    -9.6491    -3.0393 H       
  44 H44            1.2790    -9.3056    -1.2761 H       
  45 H45            0.5439    -8.1227    -2.3846 H       
  46 H46            1.3987    -9.5414    -3.0363 H       
  47 H47           -0.9321     3.6018    -2.1132 H       
  48 H48           -0.3581     5.0293    -1.2182 H       
  49 H49            0.6125     3.5373    -1.2309 H       
  50 H50           -3.0798     3.6692     0.9266 H       
  51 H51           -2.5142     5.1064     0.0417 H       
  52 H52           -3.0883     3.6789    -0.8533 H       
  53 H53            0.6243     3.5237     1.2675 H       
  54 H54           -0.3462     5.0157     1.2802 H       
  55 H55           -0.9118     3.5786     2.1651 H       
@<TRIPOS>BOND
   1    1    2 am
   2    1    3 2
   3    1    4 1
   4    2    5 1
   5    2   27 1
   6    4   23 1
   7    5    6 1
   8    5   11 1
   9    5   12 1
  10    6    7 1
  11    6   28 1
  12    6   29 1
  13    7    8 1
  14    7   30 1
  15    7   31 1
  16    8    9 1
  17    8   32 1
  18    8   33 1
  19    9   10 1
  20    9   12 1
  21    9   13 1
  22   10   11 1
  23   10   34 1
  24   10   35 1
  25   11   36 1
  26   11   37 1
  27   12   38 1
  28   12   39 1
  29   13   14 am
  30   13   40 1
  31   14   15 2
  32   14   16 1
  33   16   17 ar
  34   16   21 ar
  35   17   18 ar
  36   17   41 1
  37   18   19 ar
  38   18   42 1
  39   19   20 ar
  40   19   43 1
  41   20   21 ar
  42   20   22 1
  43   22   44 1
  44   22   45 1
  45   22   46 1
  46   23   24 1
  47   23   26 1
  48   23   25 1
  49   24   47 1
  50   24   48 1
  51   24   49 1
  52   25   50 1
  53   25   51 1
  54   25   52 1
  55   26   53 1
  56   26   54 1
  57   26   55 1

#	End of record

