#	Name: ASD02560528
#	Creating user name:	WinNT
#	Creation time:	15. 06. 2019 20:25

#	Modifying user name:	WinNT
#	Modification time:	15. 06. 2019 20:25

#	Program:	/corina/corina34_cracker 3.40 0067  02.08.2006

@<TRIPOS>MOLECULE
ASD02560528
  29   30    0    0    0
SMALL
NO_CHARGES


@<TRIPOS>ATOM
   1 C1            -0.0163     1.3508     0.0095 C.2     
   2 C2             0.0021    -0.0041     0.0020 C.2     
   3 N3            -1.1794    -0.6868     0.0096 N.am    
   4 C4            -2.3488    -0.0212     0.0238 C.2     
   5 N5            -2.3829     1.3101     0.0313 N.2     
   6 C6            -1.2605     2.0170     0.0308 C.2     
   7 O7            -3.3956    -0.6479     0.0296 O.2     
   8 O8            -2.3941    -2.3270     2.0859 O.3     
   9 C9            -2.4959    -3.0125     3.3593 C.3     
  10 F10            1.1380     2.0528     0.0022 F       
  11 C11           -1.1593    -2.6695     1.4413 C.3     
  12 C12           -0.9897    -4.2086     1.4347 C.3     
  13 S13           -1.9384    -4.7090     2.9256 S.3     
  14 N14           -1.3090     3.3924     0.0386 N.pl3   
  15 C15           -1.1747    -2.1517     0.0017 C.3     
  16 C16           -3.9417    -3.0237     3.8598 C.3     
  17 O17           -4.7697    -3.6961     2.9089 O.3     
  18 H18            0.9411    -0.5375    -0.0101 H       
  19 H19           -1.8331    -2.5619     4.0980 H       
  20 H20           -0.3290    -2.2146     1.9815 H       
  21 H21           -1.4239    -4.6431     0.5343 H       
  22 H22            0.0605    -4.4838     1.5324 H       
  23 H23           -2.1656     3.8475     0.0444 H       
  24 H24           -0.4865     3.9067     0.0382 H       
  25 H25           -2.0683    -2.5152    -0.5056 H       
  26 H26           -0.2885    -2.5094    -0.5225 H       
  27 H27           -3.9910    -3.5437     4.8165 H       
  28 H28           -4.2907    -1.9987     3.9850 H       
  29 H29           -5.7021    -3.7410     3.1615 H       
@<TRIPOS>BOND
   1    1    2 2
   2    1   10 1
   3    1    6 1
   4    2    3 1
   5    2   18 1
   6    3    4 am
   7    3   15 1
   8    4    5 1
   9    4    7 2
  10    5    6 2
  11    6   14 1
  12    8   11 1
  13    8    9 1
  14    9   13 1
  15    9   16 1
  16    9   19 1
  17   11   12 1
  18   11   15 1
  19   11   20 1
  20   12   13 1
  21   12   21 1
  22   12   22 1
  23   14   23 1
  24   14   24 1
  25   15   25 1
  26   15   26 1
  27   16   17 1
  28   16   27 1
  29   16   28 1
  30   17   29 1

#	End of record

