#	Name: ASD05130014
#	Creating user name:	WinNT
#	Creation time:	15. 06. 2019 20:56

#	Modifying user name:	WinNT
#	Modification time:	15. 06. 2019 20:56

#	Program:	/corina/corina34_cracker 3.40 0067  02.08.2006

@<TRIPOS>MOLECULE
ASD05130014
  61   64    0    0    0
SMALL
NO_CHARGES


@<TRIPOS>ATOM
   1 N1             2.1427     0.6737    -2.4905 N.am    
   2 C2             1.7623    -0.6009    -2.2735 C.2     
   3 O3             2.3816    -1.5151    -2.7821 O.2     
   4 N4             0.6952    -0.8620    -1.4926 N.am    
   5 C5             3.3736     0.9543    -3.2337 C.3     
   6 C6             1.3221     1.7787    -1.9885 C.3     
   7 N7             1.4955    -5.5985    -1.6496 N.am    
   8 C8             1.0415    -6.8579    -1.4957 C.2     
   9 C9            -0.3444    -7.0980    -1.0863 C.2     
  10 C10           -1.1752    -6.0348    -0.8604 C.2     
  11 C11           -0.6743    -4.7217    -1.0284 C.ar    
  12 C12           -1.4890    -3.6042    -0.8078 C.ar    
  13 N13           -1.0077    -2.3910    -0.9685 N.ar    
  14 C14            0.2484    -2.1710    -1.3401 C.ar    
  15 C15            1.1231    -3.2200    -1.5794 C.ar    
  16 C16            0.6662    -4.5243    -1.4244 C.ar    
  17 O17            1.7862    -7.8003    -1.6983 O.2     
  18 C18            2.8851    -5.3715    -2.0540 C.3     
  19 C19            2.9696    -5.3178    -3.5808 C.3     
  20 C20           -0.8432    -8.4830    -0.9183 C.ar    
  21 C21           -0.4701    -9.2301     0.2000 C.ar    
  22 C22           -0.9355   -10.5210     0.3546 C.ar    
  23 C23           -1.7725   -11.0774    -0.5969 C.ar    
  24 C24           -2.1489   -10.3389    -1.7145 C.ar    
  25 C25           -1.6906    -9.0410    -1.8737 C.ar    
  26 N26           -2.9957   -10.9058    -2.6761 N.am    
  27 C27           -3.7090   -10.1111    -3.4984 C.2     
  28 O28           -3.6977    -8.9056    -3.3396 O.2     
  29 N29           -4.4347   -10.6526    -4.4967 N.am    
  30 C30           -5.1229    -9.8242    -5.3903 C.ar    
  31 C31           -5.1350   -10.1220    -6.7467 C.ar    
  32 C32           -5.8150    -9.3024    -7.6260 C.ar    
  33 C33           -6.4831    -8.1861    -7.1572 C.ar    
  34 C34           -6.4729    -7.8869    -5.8072 C.ar    
  35 C35           -5.7998    -8.7059    -4.9219 C.ar    
  36 F36           -2.2248   -12.3408    -0.4405 F       
  37 Br37           0.6733    -8.4747     1.5031 Br      
  38 H38            0.2388    -0.1375    -1.0370 H       
  39 H39            3.1461     1.0333    -4.2968 H       
  40 H40            3.8035     1.8927    -2.8835 H       
  41 H41            4.0869     0.1458    -3.0738 H       
  42 H42            0.4008     1.3823    -1.5616 H       
  43 H43            1.8740     2.3215    -1.2211 H       
  44 H44            1.0810     2.4542    -2.8092 H       
  45 H45           -2.1996    -6.1953    -0.5584 H       
  46 H46           -2.5169    -3.7394    -0.5051 H       
  47 H47            2.1420    -3.0273    -1.8813 H       
  48 H48            3.2351    -4.4271    -1.6373 H       
  49 H49            3.5088    -6.1853    -1.6840 H       
  50 H50            2.3459    -4.5041    -3.9508 H       
  51 H51            4.0035    -5.1489    -3.8817 H       
  52 H52            2.6196    -6.2622    -3.9975 H       
  53 H53           -0.6453   -11.0981     1.2202 H       
  54 H54           -1.9855    -8.4650    -2.7383 H       
  55 H55           -3.0686   -11.8702    -2.7501 H       
  56 H56           -4.4800   -11.6164    -4.5958 H       
  57 H57           -4.6128   -10.9933    -7.1135 H       
  58 H58           -5.8248    -9.5335    -8.6810 H       
  59 H59           -7.0136    -7.5464    -7.8470 H       
  60 H60           -6.9956    -7.0143    -5.4442 H       
  61 H61           -5.7960    -8.4741    -3.8671 H       
@<TRIPOS>BOND
   1    1    2 am
   2    1    5 1
   3    1    6 1
   4    2    3 2
   5    2    4 am
   6    4   14 1
   7    4   38 1
   8    5   39 1
   9    5   40 1
  10    5   41 1
  11    6   42 1
  12    6   43 1
  13    6   44 1
  14    7    8 am
  15    7   16 1
  16    7   18 1
  17    8    9 1
  18    8   17 2
  19    9   10 2
  20    9   20 1
  21   10   11 1
  22   10   45 1
  23   11   12 ar
  24   11   16 ar
  25   12   13 ar
  26   12   46 1
  27   13   14 ar
  28   14   15 ar
  29   15   16 ar
  30   15   47 1
  31   18   19 1
  32   18   48 1
  33   18   49 1
  34   19   50 1
  35   19   51 1
  36   19   52 1
  37   20   21 ar
  38   20   25 ar
  39   21   22 ar
  40   21   37 1
  41   22   23 ar
  42   22   53 1
  43   23   24 ar
  44   23   36 1
  45   24   25 ar
  46   24   26 1
  47   25   54 1
  48   26   27 am
  49   26   55 1
  50   27   28 2
  51   27   29 am
  52   29   30 1
  53   29   56 1
  54   30   31 ar
  55   30   35 ar
  56   31   32 ar
  57   31   57 1
  58   32   33 ar
  59   32   58 1
  60   33   34 ar
  61   33   59 1
  62   34   35 ar
  63   34   60 1
  64   35   61 1

#	End of record

