#	Name: ASD05490134
#	Creating user name:	WinNT
#	Creation time:	15. 06. 2019 21:01

#	Modifying user name:	WinNT
#	Modification time:	15. 06. 2019 21:01

#	Program:	/corina/corina34_cracker 3.40 0067  02.08.2006

@<TRIPOS>MOLECULE
ASD05490134
  75   78    0    0    0
SMALL
NO_CHARGES


@<TRIPOS>ATOM
   1 N1             0.0591     1.2547     0.1892 N.ar    
   2 C2             1.1649     1.9825     0.1597 C.ar    
   3 C3             2.4092     1.3790     0.0797 C.ar    
   4 C4             2.4883    -0.0111     0.0301 C.ar    
   5 C5             1.3048    -0.7439     0.0632 C.ar    
   6 C6             0.0949    -0.0698     0.1439 C.ar    
   7 O7             1.0782     3.3357     0.2080 O.3     
   8 N8            -1.0930    -0.7912     0.1775 N.pl3   
   9 N9             3.7247    -0.6540    -0.0513 N.am    
  10 C10            4.2505    -1.0683    -1.3544 C.3     
  11 C11            5.0112     0.0747    -1.9756 C.ar    
  12 C12            6.3763     0.1812    -1.7796 C.ar    
  13 C13            4.3427     1.0104    -2.7443 C.ar    
  14 C14            7.0779     1.2262    -2.3458 C.ar    
  15 C15            6.4086     2.1748    -3.1163 C.ar    
  16 C16            5.0345     2.0590    -3.3159 C.ar    
  17 C17            7.1575     3.3008    -3.7272 C.ar    
  18 C18           -0.2325     3.8993     0.2895 C.3     
  19 C19           -0.1296     5.4251     0.3343 C.3     
  20 O20            0.4112     5.9025    -0.8993 O.3     
  21 C21            0.5496     7.3234    -0.9621 C.3     
  22 C22            6.4882     4.2494    -4.4977 C.ar    
  23 C23            8.5317     3.4166    -3.5276 C.ar    
  24 C24            9.2233     4.4659    -4.0982 C.ar    
  25 C25            8.5547     5.4018    -4.8665 C.ar    
  26 C26            7.1898     5.2947    -5.0636 C.ar    
  27 C27           10.3320     7.3168    -7.5535 C.3     
  28 C28            9.9993     7.1058    -9.0422 C.3     
  29 N29            9.7914     6.1525    -6.8189 N.3     
  30 C30            8.6764     5.6312    -7.6503 C.3     
  31 C31            9.2151     5.7746    -9.0959 C.3     
  32 C32            9.3151     6.5459    -5.4861 C.3     
  33 C33            4.4347    -0.8936     1.0689 C.2     
  34 O34            5.5109    -1.4532     0.9981 O.2     
  35 O35            3.9514    -0.5129     2.2666 O.3     
  36 C36            4.0620    -0.3004     4.6900 C.3     
  37 C37            4.7699    -0.8032     3.4302 C.3     
  38 N38            1.3371    -2.2230     0.0124 N.pl3   
  39 O39            1.4833    -2.8645     1.0374 O.2     
  40 O40            1.2174    -2.7985    -1.0543 O.2     
  41 H41            3.3071     1.9787     0.0557 H       
  42 H42           -1.0729    -1.7604     0.1447 H       
  43 H43           -1.9419    -0.3253     0.2339 H       
  44 H44            4.9179    -1.9200    -1.2228 H       
  45 H45            3.4241    -1.3516    -2.0063 H       
  46 H46            6.8941    -0.5546    -1.1822 H       
  47 H47            3.2774     0.9201    -2.8977 H       
  48 H48            8.1436     1.3088    -2.1915 H       
  49 H49            4.5108     2.7912    -3.9126 H       
  50 H50           -0.8118     3.5996    -0.5839 H       
  51 H51           -0.7262     3.5417     1.1931 H       
  52 H52           -1.1211     5.8519     0.4856 H       
  53 H53            0.5227     5.7214     1.1558 H       
  54 H54            1.2160     7.6590    -0.1675 H       
  55 H55            0.9662     7.6055    -1.9290 H       
  56 H56           -0.4279     7.7895    -0.8376 H       
  57 H57            5.4225     4.1667    -4.6522 H       
  58 H58            9.0545     2.6868    -2.9272 H       
  59 H59           10.2884     4.5567    -3.9441 H       
  60 H60            6.6727     6.0282    -5.6644 H       
  61 H61           11.4122     7.3721    -7.4187 H       
  62 H62            9.8630     8.2329    -7.1944 H       
  63 H63            9.3812     7.9242    -9.4114 H       
  64 H64           10.9156     7.0289    -9.6275 H       
  65 H65            8.4779     4.5855    -7.4156 H       
  66 H66            7.7791     6.2346    -7.5124 H       
  67 H67            8.3933     5.8395    -9.8090 H       
  68 H68            9.8782     4.9460    -9.3444 H       
  69 H69            8.6592     7.4119    -5.5757 H       
  70 H70           10.1675     6.7993    -4.8558 H       
  71 H71            4.6765    -0.5184     5.5635 H       
  72 H72            3.9067     0.7758     4.6144 H       
  73 H73            3.0986    -0.8005     4.7895 H       
  74 H74            4.9252    -1.8795     3.5058 H       
  75 H75            5.7333    -0.3032     3.3307 H       
@<TRIPOS>BOND
   1    1    2 ar
   2    1    6 ar
   3    2    3 ar
   4    2    7 1
   5    3    4 ar
   6    3   41 1
   7    4    5 ar
   8    4    9 1
   9    5    6 ar
  10    5   38 1
  11    6    8 1
  12    7   18 1
  13    8   42 1
  14    8   43 1
  15    9   10 1
  16    9   33 am
  17   10   11 1
  18   10   44 1
  19   10   45 1
  20   11   12 ar
  21   11   13 ar
  22   12   14 ar
  23   12   46 1
  24   13   16 ar
  25   13   47 1
  26   14   15 ar
  27   14   48 1
  28   15   16 ar
  29   15   17 1
  30   16   49 1
  31   17   22 ar
  32   17   23 ar
  33   18   19 1
  34   18   50 1
  35   18   51 1
  36   19   20 1
  37   19   52 1
  38   19   53 1
  39   20   21 1
  40   21   54 1
  41   21   55 1
  42   21   56 1
  43   22   26 ar
  44   22   57 1
  45   23   24 ar
  46   23   58 1
  47   24   25 ar
  48   24   59 1
  49   25   26 ar
  50   25   32 1
  51   26   60 1
  52   27   28 1
  53   27   29 1
  54   27   61 1
  55   27   62 1
  56   28   31 1
  57   28   63 1
  58   28   64 1
  59   29   30 1
  60   29   32 1
  61   30   31 1
  62   30   65 1
  63   30   66 1
  64   31   67 1
  65   31   68 1
  66   32   69 1
  67   32   70 1
  68   33   34 2
  69   33   35 1
  70   35   37 1
  71   36   37 1
  72   36   71 1
  73   36   72 1
  74   36   73 1
  75   37   74 1
  76   37   75 1
  77   38   39 2
  78   38   40 2

#	End of record

