#	Name: ASD01151062
#	Creating user name:	WinNT
#	Creation time:	15. 06. 2019 19:05

#	Modifying user name:	WinNT
#	Modification time:	15. 06. 2019 19:05

#	Program:	/corina/corina34_cracker 3.40 0067  02.08.2006

@<TRIPOS>MOLECULE
ASD01151062
  52   54    0    0    0
SMALL
NO_CHARGES


@<TRIPOS>ATOM
   1 O1            -0.6342     1.4162    -2.2647 O.2     
   2 C2            -0.1614     1.5224    -1.1488 C.2     
   3 C3             1.2019     2.0481    -0.9744 C.2     
   4 C4             1.7983     2.1957     0.2383 C.2     
   5 S5             3.3715     2.8292     0.0710 S.3     
   6 C6             3.2384     2.9036    -1.6774 C.2     
   7 C7             2.0453     2.4545    -2.0750 C.2     
   8 N8             4.2419     3.3620    -2.5332 N.am    
   9 C9             5.4160     3.7885    -2.0274 C.2     
  10 O10            5.6015     3.7741    -0.8259 O.2     
  11 C11            6.4783     4.2739    -2.9334 C.ar    
  12 C12            7.6956     4.7163    -2.4128 C.ar    
  13 C13            8.6828     5.1681    -3.2640 C.ar    
  14 C14            8.4684     5.1833    -4.6308 C.ar    
  15 C15            7.2642     4.7461    -5.1533 C.ar    
  16 C16            6.2707     4.2865    -4.3138 C.ar    
  17 N17           -0.8883     1.1637    -0.0720 N.am    
  18 C18           -2.2111     0.7384    -0.2313 C.ar    
  19 C19           -3.2539     1.5037     0.2744 C.ar    
  20 C20           -2.9616     2.7941     0.9959 C.3     
  21 C21           -4.5590     1.0811     0.1150 C.ar    
  22 C22           -4.8281    -0.1026    -0.5473 C.ar    
  23 C23           -3.7921    -0.8670    -1.0521 C.ar    
  24 C24           -2.4850    -0.4474    -0.9006 C.ar    
  25 C25           -1.3566    -1.2807    -1.4514 C.3     
  26 C26           -6.2534    -0.5609    -0.7190 C.3     
  27 C27           -6.9325     0.2797    -1.8021 C.3     
  28 F28           -6.1933     0.1987    -2.9871 F       
  29 F29           -8.2260    -0.2042    -2.0254 F       
  30 F30           -6.9990     1.6131    -1.3842 F       
  31 C31           -6.2692    -2.0341    -1.1320 C.3     
  32 F32           -5.5099    -2.7809    -0.2249 F       
  33 F33           -7.5871    -2.5035    -1.1345 F       
  34 F34           -5.7252    -2.1648    -2.4142 F       
  35 F35           -6.9412    -0.4080     0.4896 F       
  36 H36            1.3365     1.9451     1.1819 H       
  37 H37            1.7400     2.4074    -3.1098 H       
  38 H38            4.0939     3.3736    -3.4918 H       
  39 H39            7.8641     4.7053    -1.3461 H       
  40 H40            9.6250     5.5110    -2.8625 H       
  41 H41            9.2445     5.5383    -5.2927 H       
  42 H42            7.1031     4.7609    -6.2212 H       
  43 H43            5.3312     3.9455    -4.7229 H       
  44 H44           -0.4940     1.2006     0.8135 H       
  45 H45           -2.9481     3.6157     0.2798 H       
  46 H46           -3.7344     2.9758     1.7428 H       
  47 H47           -1.9910     2.7240     1.4869 H       
  48 H48           -5.3704     1.6756     0.5083 H       
  49 H49           -4.0055    -1.7911    -1.5685 H       
  50 H50           -1.2135    -1.0467    -2.5064 H       
  51 H51           -0.4409    -1.0603    -0.9029 H       
  52 H52           -1.5994    -2.3378    -1.3435 H       
@<TRIPOS>BOND
   1    1    2 2
   2    2    3 1
   3    2   17 am
   4    3    4 2
   5    3    7 1
   6    4    5 1
   7    4   36 1
   8    5    6 1
   9    6    7 2
  10    6    8 1
  11    7   37 1
  12    8    9 am
  13    8   38 1
  14    9   10 2
  15    9   11 1
  16   11   12 ar
  17   11   16 ar
  18   12   13 ar
  19   12   39 1
  20   13   14 ar
  21   13   40 1
  22   14   15 ar
  23   14   41 1
  24   15   16 ar
  25   15   42 1
  26   16   43 1
  27   17   18 1
  28   17   44 1
  29   18   19 ar
  30   18   24 ar
  31   19   20 1
  32   19   21 ar
  33   20   45 1
  34   20   46 1
  35   20   47 1
  36   21   22 ar
  37   21   48 1
  38   22   23 ar
  39   22   26 1
  40   23   24 ar
  41   23   49 1
  42   24   25 1
  43   25   50 1
  44   25   51 1
  45   25   52 1
  46   26   27 1
  47   26   31 1
  48   26   35 1
  49   27   28 1
  50   27   29 1
  51   27   30 1
  52   31   32 1
  53   31   33 1
  54   31   34 1

#	End of record

