#	Name: ASD01810412
#	Creating user name:	WinNT
#	Creation time:	15. 06. 2019 19:24

#	Modifying user name:	WinNT
#	Modification time:	15. 06. 2019 19:24

#	Program:	/corina/corina34_cracker 3.40 0067  02.08.2006

@<TRIPOS>MOLECULE
ASD01810412
  45   47    0    0    0
SMALL
NO_CHARGES


@<TRIPOS>ATOM
   1 C1            -0.8916    -0.1878     0.3490 C.1     
   2 C2            -0.7730     1.2378     0.2837 C.ar    
   3 C3             0.4856     1.8326     0.1759 C.ar    
   4 C4             0.5925     3.2065     0.1135 C.ar    
   5 C5            -0.5437     3.9948     0.1580 C.ar    
   6 C6            -1.7940     3.4120     0.2652 C.ar    
   7 C7            -1.9160     2.0390     0.3218 C.ar    
   8 N8            -0.9856    -1.3187     0.4008 N.1     
   9 N9            -1.4505     8.1285     0.0545 N.am    
  10 C10           -1.0195     7.5361    -1.2191 C.3     
  11 C11           -1.1774     6.0147    -1.1336 C.3     
  12 C12           -0.4190     5.4951     0.0898 C.3     
  13 C13           -1.0094     6.1140     1.3589 C.3     
  14 C14           -0.8496     7.6365     1.3017 C.3     
  15 C15           -2.3754     9.1085     0.0778 C.2     
  16 C16           -2.8712     9.6875    -1.1892 C.ar    
  17 C17           -4.2267     9.9662    -1.3455 C.ar    
  18 C18           -4.6861    10.5130    -2.5448 C.ar    
  19 C19           -3.7820    10.7771    -3.5802 C.ar    
  20 C20           -2.4407    10.4972    -3.4164 C.ar    
  21 C21           -1.9799     9.9613    -2.2296 C.ar    
  22 O22           -2.8019     9.5165     1.1404 O.2     
  23 C23           -4.2743    11.3675    -4.8764 C.3     
  24 C24           -6.1168    10.8108    -2.7202 C.2     
  25 O25           -6.8984    10.5809    -1.8222 O.2     
  26 H26            1.3734     1.2186     0.1418 H       
  27 H27            1.5654     3.6680     0.0301 H       
  28 H28           -2.6768     4.0331     0.2998 H       
  29 H29           -2.8928     1.5852     0.4006 H       
  30 H30           -1.6374     7.9226    -2.0295 H       
  31 H31            0.0256     7.7852    -1.4029 H       
  32 H32           -2.2339     5.7632    -1.0406 H       
  33 H33           -0.7717     5.5556    -2.0352 H       
  34 H34            0.6330     5.7686     0.0082 H       
  35 H35           -2.0674     5.8616     1.4285 H       
  36 H36           -0.4841     5.7256     2.2314 H       
  37 H37            0.2094     7.8938     1.3235 H       
  38 H38           -1.3554     8.0892     2.1545 H       
  39 H39           -4.9192     9.7598    -0.5429 H       
  40 H40           -1.7472    10.7024    -4.2185 H       
  41 H41           -0.9280     9.7495    -2.1070 H       
  42 H42           -4.2417    12.4553    -4.8157 H       
  43 H43           -3.6379    11.0300    -5.6943 H       
  44 H44           -5.2996    11.0442    -5.0566 H       
  45 H45           -6.4704    11.2339    -3.6488 H       
@<TRIPOS>BOND
   1    1    2 1
   2    1    8 3
   3    2    3 ar
   4    2    7 ar
   5    3    4 ar
   6    3   26 1
   7    4    5 ar
   8    4   27 1
   9    5    6 ar
  10    5   12 1
  11    6    7 ar
  12    6   28 1
  13    7   29 1
  14    9   10 1
  15    9   14 1
  16    9   15 am
  17   10   11 1
  18   10   30 1
  19   10   31 1
  20   11   12 1
  21   11   32 1
  22   11   33 1
  23   12   13 1
  24   12   34 1
  25   13   14 1
  26   13   35 1
  27   13   36 1
  28   14   37 1
  29   14   38 1
  30   15   16 1
  31   15   22 2
  32   16   17 ar
  33   16   21 ar
  34   17   18 ar
  35   17   39 1
  36   18   19 ar
  37   18   24 1
  38   19   20 ar
  39   19   23 1
  40   20   21 ar
  41   20   40 1
  42   21   41 1
  43   23   42 1
  44   23   43 1
  45   23   44 1
  46   24   25 2
  47   24   45 1

#	End of record

