#	Name: ASD05790092
#	Creating user name:	WinNT
#	Creation time:	15. 06. 2019 21:03

#	Modifying user name:	WinNT
#	Modification time:	15. 06. 2019 21:03

#	Program:	/corina/corina34_cracker 3.40 0067  02.08.2006

@<TRIPOS>MOLECULE
ASD05790092
 104  110    0    0    0
SMALL
NO_CHARGES


@<TRIPOS>ATOM
   1 C1            -0.5238    -1.3604     1.9982 C.3     
   2 C2            -0.4207    -2.8000     2.5087 C.3     
   3 C3             0.3076    -2.8024     3.8546 C.3     
   4 C4             1.6539    -2.1236     3.6851 C.2     
   5 C5             1.6789    -0.7592     3.0345 C.3     
   6 C6             0.8790    -0.8155     1.7285 C.3     
   7 C7             2.7152    -2.7546     4.1022 C.2     
   8 C8             4.1161    -2.1963     4.0183 C.3     
   9 C9             3.9855    -0.6803     3.9760 C.3     
  10 C10            3.1014    -0.3528     2.7480 C.3     
  11 C11            5.2860     0.0618     3.6291 C.3     
  12 C12            4.8248     1.3504     2.9576 C.2     
  13 C13            3.3704     1.1305     2.5257 C.3     
  14 C14            6.0473     0.3566     4.9080 C.3     
  15 C15            7.3528     1.0481     4.6941 C.3     
  16 C16            7.2647     2.5353     4.4536 C.3     
  17 C17            6.8683     2.8672     3.0264 C.3     
  18 C18            5.4919     2.4032     2.7201 C.2     
  19 O19            6.3101     3.1299     5.3717 O.3     
  20 C20            7.0764     3.5159     6.5021 C.3     
  21 C21            8.3194     4.1924     5.8569 C.3     
  22 C22            8.6444     3.1861     4.7521 C.3     
  23 C23            6.4907     4.4940     7.4938 C.3     
  24 C24            7.5192     4.6693     8.6245 C.3     
  25 C25            8.8677     5.1429     8.0854 C.3     
  26 N26            9.2961     4.3283     6.9284 N.am    
  27 C27            1.0428     0.2649     3.9766 C.3     
  28 C28            4.7000     3.4233     1.9433 C.3     
  29 C29            6.9913     5.6988     9.6257 C.3     
  30 C30            9.6404     2.1375     5.2514 C.3     
  31 O31           -1.7531    -3.3522     2.6767 O.3     
  32 C32           -3.1220    -6.8268     2.4216 C.3     
  33 C33           -3.2426    -5.3212     2.6656 C.3     
  34 C34           -1.8895    -4.6768     2.5074 C.2     
  35 C35           -4.2169    -4.7168     1.6526 C.3     
  36 C36           -3.7624    -5.0742     4.0832 C.3     
  37 O37           -0.9275    -5.3524     2.2281 O.2     
  38 C38           14.4022     3.3600    11.0748 C.ar    
  39 C39           14.1600     2.1702    11.7355 C.ar    
  40 C40           13.3749     1.1984    11.1438 C.ar    
  41 C41           12.8321     1.4164     9.8912 C.ar    
  42 C42           13.0744     2.6061     9.2305 C.ar    
  43 C43           13.8595     3.5780     9.8223 C.ar    
  44 C44           12.4827     2.8438     7.8650 C.3     
  45 O45           11.1791     3.4678     8.0044 O.3     
  46 C46           10.5115     3.7488     6.8694 C.2     
  47 O47           11.0048     3.4800     5.7920 O.2     
  48 H48           -1.1044    -1.3424     1.0758 H       
  49 H49           -1.0156    -0.7425     2.7496 H       
  50 H50            0.1369    -3.4020     1.7914 H       
  51 H51           -0.2847    -2.2597     4.5913 H       
  52 H52            0.4559    -3.8296     4.1876 H       
  53 H53            1.3898    -1.4666     1.0191 H       
  54 H54            0.8030     0.1869     1.3072 H       
  55 H55            2.5852    -3.7362     4.5336 H       
  56 H56            4.6897    -2.4962     4.8953 H       
  57 H57            4.6056    -2.5532     3.1121 H       
  58 H58            3.5397    -0.3010     4.8955 H       
  59 H59            3.4672    -0.9085     1.8846 H       
  60 H60            5.8904    -0.5302     2.9418 H       
  61 H61            3.2473     1.3826     1.4724 H       
  62 H62            2.6995     1.7318     3.1393 H       
  63 H63            5.4238     0.9822     5.5466 H       
  64 H64            6.2339    -0.5844     5.4255 H       
  65 H65            7.9772     0.8796     5.5715 H       
  66 H66            7.8456     0.5912     3.8360 H       
  67 H67            6.9199     3.9467     2.8846 H       
  68 H68            7.5668     2.3858     2.3420 H       
  69 H69            7.3958     2.6233     7.0400 H       
  70 H70            8.0608     5.1629     5.4334 H       
  71 H71            9.0296     3.6950     3.8685 H       
  72 H72            6.3084     5.4519     7.0065 H       
  73 H73            5.5587     4.0991     7.8980 H       
  74 H74            7.6545     3.7153     9.1342 H       
  75 H75            8.7832     6.1850     7.7771 H       
  76 H76            9.6156     5.0642     8.8744 H       
  77 H77            1.6035     0.2968     4.9107 H       
  78 H78            1.0602     1.2491     3.5085 H       
  79 H79            0.0113    -0.0217     4.1816 H       
  80 H80            5.3170     4.3043     1.7666 H       
  81 H81            4.3949     2.9959     0.9882 H       
  82 H82            3.8155     3.7076     2.5134 H       
  83 H83            6.0456     5.3503    10.0407 H       
  84 H84            7.7155     5.8280    10.4300 H       
  85 H85            6.8367     6.6517     9.1195 H       
  86 H86            9.7145     2.1948     6.3374 H       
  87 H87            9.2974     1.1440     4.9625 H       
  88 H88           10.6189     2.3266     4.8100 H       
  89 H89           -2.4279    -7.2574     3.1433 H       
  90 H90           -4.1007    -7.2929     2.5361 H       
  91 H91           -2.7517    -7.0027     1.4117 H       
  92 H92           -5.1956    -5.1829     1.7670 H       
  93 H93           -4.3028    -3.6442     1.8264 H       
  94 H94           -3.8466    -4.8927     0.6426 H       
  95 H95           -3.0683    -5.5048     4.8049 H       
  96 H96           -3.8483    -4.0016     4.2570 H       
  97 H97           -4.7411    -5.5404     4.1977 H       
  98 H98           15.0119     4.1210    11.5390 H       
  99 H99           14.5843     1.9997    12.7139 H       
 100 H100          13.1863     0.2685    11.6597 H       
 101 H101          12.2194     0.6568     9.4286 H       
 102 H102          14.0485     4.5077     9.3062 H       
 103 H103          13.1399     3.4990     7.2933 H       
 104 H104          12.3762     1.8920     7.3446 H       
@<TRIPOS>BOND
   1    1    2 1
   2    1    6 1
   3    1   48 1
   4    1   49 1
   5    2    3 1
   6    2   31 1
   7    2   50 1
   8    3    4 1
   9    3   51 1
  10    3   52 1
  11    4    5 1
  12    4    7 2
  13    5    6 1
  14    5   27 1
  15    5   10 1
  16    6   53 1
  17    6   54 1
  18    7    8 1
  19    7   55 1
  20    8    9 1
  21    8   56 1
  22    8   57 1
  23    9   10 1
  24    9   11 1
  25    9   58 1
  26   10   13 1
  27   10   59 1
  28   11   12 1
  29   11   14 1
  30   11   60 1
  31   12   13 1
  32   12   18 2
  33   13   61 1
  34   13   62 1
  35   14   15 1
  36   14   63 1
  37   14   64 1
  38   15   16 1
  39   15   65 1
  40   15   66 1
  41   16   17 1
  42   16   19 1
  43   16   22 1
  44   17   18 1
  45   17   67 1
  46   17   68 1
  47   18   28 1
  48   19   20 1
  49   20   21 1
  50   20   23 1
  51   20   69 1
  52   21   22 1
  53   21   26 1
  54   21   70 1
  55   22   30 1
  56   22   71 1
  57   23   24 1
  58   23   72 1
  59   23   73 1
  60   24   25 1
  61   24   29 1
  62   24   74 1
  63   25   26 1
  64   25   75 1
  65   25   76 1
  66   26   46 am
  67   27   77 1
  68   27   78 1
  69   27   79 1
  70   28   80 1
  71   28   81 1
  72   28   82 1
  73   29   83 1
  74   29   84 1
  75   29   85 1
  76   30   86 1
  77   30   87 1
  78   30   88 1
  79   31   34 1
  80   32   33 1
  81   32   89 1
  82   32   90 1
  83   32   91 1
  84   33   34 1
  85   33   35 1
  86   33   36 1
  87   34   37 2
  88   35   92 1
  89   35   93 1
  90   35   94 1
  91   36   95 1
  92   36   96 1
  93   36   97 1
  94   38   39 ar
  95   38   43 ar
  96   38   98 1
  97   39   40 ar
  98   39   99 1
  99   40   41 ar
 100   40  100 1
 101   41   42 ar
 102   41  101 1
 103   42   43 ar
 104   42   44 1
 105   43  102 1
 106   44   45 1
 107   44  103 1
 108   44  104 1
 109   45   46 1
 110   46   47 2

#	End of record

