#	Name: ASD03731526
#	Creating user name:	WinNT
#	Creation time:	15. 06. 2019 20:45

#	Modifying user name:	WinNT
#	Modification time:	15. 06. 2019 20:45

#	Program:	/corina/corina34_cracker 3.40 0067  02.08.2006

@<TRIPOS>MOLECULE
ASD03731526
  59   63    0    0    0
SMALL
NO_CHARGES


@<TRIPOS>ATOM
   1 C1            -0.0184     1.5028     0.0103 C.2     
   2 C2             0.0021    -0.0041     0.0020 C.3     
   3 C3             1.4513    -0.4944    -0.0145 C.3     
   4 O4             1.0231     2.1231     0.0037 O.2     
   5 N5            -1.1946     2.1607     0.0195 N.am    
   6 C6            -1.2129     3.5083     0.0269 C.2     
   7 O7            -2.2708     4.1001     0.0351 O.2     
   8 C8             0.0819     4.2795     0.0249 C.3     
   9 C9            -0.2181     5.7798     0.0345 C.3     
  10 C10           -2.4532     1.4111     0.0214 C.3     
  11 C11           -2.8846     1.1422     1.4645 C.3     
  12 C12           -4.1991     0.3593     1.4665 C.3     
  13 O13           -2.8500     3.6014     7.7402 O.3     
  14 C14           -3.0309     3.7639     9.1593 C.3     
  15 O15           -4.4377     3.5275     9.3543 O.3     
  16 C16           -4.8143     2.7001     8.3353 C.ar    
  17 C17           -3.8381     2.7468     7.3426 C.ar    
  18 C18           -5.9288     1.8971     8.1722 C.ar    
  19 C19           -6.0849     1.1334     7.0193 C.ar    
  20 C20           -5.1071     1.1947     6.0311 C.ar    
  21 C21           -3.9918     1.9897     6.1934 C.ar    
  22 O22           -7.0854     0.2741     6.6716 O.3     
  23 C23           -5.5677     0.2950     4.9156 C.3     
  24 C24           -7.0454     0.0488     5.2493 C.3     
  25 N25           -4.6121     0.1019     2.8483 N.am    
  26 C26           -5.3969     0.9303     3.5658 C.2     
  27 C27           -4.7871    -0.9843     4.8547 C.ar    
  28 C28           -4.5532    -1.9999     5.7548 C.ar    
  29 C29           -3.7689    -3.0803     5.3921 C.ar    
  30 C30           -3.2199    -3.1375     4.1239 C.ar    
  31 C31           -3.4505    -2.1223     3.2192 C.ar    
  32 C32           -4.2391    -1.0310     3.5755 C.ar    
  33 O33           -5.8722     1.9824     3.1939 O.2     
  34 H34           -0.4983    -0.3791     0.8948 H       
  35 H35           -0.5153    -0.3696    -0.8850 H       
  36 H36            1.4661    -1.5843    -0.0204 H       
  37 H37            1.9516    -0.1193    -0.9073 H       
  38 H38            1.9686    -0.1289     0.8726 H       
  39 H39            0.6612     4.0191     0.9108 H       
  40 H40            0.6527     4.0288    -0.8692 H       
  41 H41            0.7184     6.3375     0.0331 H       
  42 H42           -0.7974     6.0401    -0.8513 H       
  43 H43           -0.7889     6.0305     0.9286 H       
  44 H44           -3.2232     1.9925    -0.4857 H       
  45 H45           -2.3124     0.4633    -0.4983 H       
  46 H46           -2.1146     0.5607     1.9715 H       
  47 H47           -3.0254     2.0900     1.9841 H       
  48 H48           -4.9691     0.9408     0.9594 H       
  49 H49           -4.0583    -0.5884     0.9468 H       
  50 H50           -2.4397     3.0302     9.7072 H       
  51 H51           -2.7665     4.7760     9.4657 H       
  52 H52           -6.6827     1.8625     8.9447 H       
  53 H53           -3.2365     2.0221     5.4221 H       
  54 H54           -7.3304    -0.9761     5.0115 H       
  55 H55           -7.6841     0.7606     4.7264 H       
  56 H56           -4.9827    -1.9531     6.7446 H       
  57 H57           -3.5860    -3.8775     6.0975 H       
  58 H58           -2.6075    -3.9808     3.8409 H       
  59 H59           -3.0179    -2.1737     2.2309 H       
@<TRIPOS>BOND
   1    1    2 1
   2    1    4 2
   3    1    5 am
   4    2    3 1
   5    2   34 1
   6    2   35 1
   7    3   36 1
   8    3   37 1
   9    3   38 1
  10    5    6 am
  11    5   10 1
  12    6    7 2
  13    6    8 1
  14    8    9 1
  15    8   39 1
  16    8   40 1
  17    9   41 1
  18    9   42 1
  19    9   43 1
  20   10   11 1
  21   10   44 1
  22   10   45 1
  23   11   12 1
  24   11   46 1
  25   11   47 1
  26   12   25 1
  27   12   48 1
  28   12   49 1
  29   13   14 1
  30   13   17 1
  31   14   15 1
  32   14   50 1
  33   14   51 1
  34   15   16 1
  35   16   17 ar
  36   16   18 ar
  37   17   21 ar
  38   18   19 ar
  39   18   52 1
  40   19   20 ar
  41   19   22 1
  42   20   21 ar
  43   20   23 1
  44   21   53 1
  45   22   24 1
  46   23   24 1
  47   23   26 1
  48   23   27 1
  49   24   54 1
  50   24   55 1
  51   25   26 am
  52   25   32 1
  53   26   33 2
  54   27   28 ar
  55   27   32 ar
  56   28   29 ar
  57   28   56 1
  58   29   30 ar
  59   29   57 1
  60   30   31 ar
  61   30   58 1
  62   31   32 ar
  63   31   59 1

#	End of record

