#	Name: ASD03091806
#	Creating user name:	WinNT
#	Creation time:	15. 06. 2019 20:31

#	Modifying user name:	WinNT
#	Modification time:	15. 06. 2019 20:31

#	Program:	/corina/corina34_cracker 3.40 0067  02.08.2006

@<TRIPOS>MOLECULE
ASD03091806
  47   51    0    0    0
SMALL
NO_CHARGES


@<TRIPOS>ATOM
   1 C1            -0.0188     1.5329     0.0105 C.3     
   2 C2             0.0021    -0.0041     0.0020 C.3     
   3 C3             0.9954    -0.4922     1.0603 C.3     
   4 C4             0.6526     0.1298     2.4170 C.3     
   5 C5             0.5877     1.6576     2.2618 C.3     
   6 C6             1.8474     2.1081     1.4868 C.3     
   7 C7             1.4466     2.0257    -0.0009 C.3     
   8 N8            -0.5375     1.9593     1.3374 N.3     
   9 C9            -0.8531     3.3940     1.3429 C.3     
  10 O10            0.9239    -1.9161     1.1585 O.3     
  11 C11            2.0589    -2.5665     1.5181 C.ar    
  12 C12            2.0491    -3.9520     1.6298 C.ar    
  13 C13            3.2088    -4.6076     1.9960 C.ar    
  14 C14            4.3552    -3.8442     2.2416 C.ar    
  15 C15            4.2868    -2.4604     2.1091 C.ar    
  16 N16            3.1613    -1.8740     1.7525 N.ar    
  17 C17            7.9962    -5.7464     3.3810 C.ar    
  18 C18            7.9608    -4.3540     3.2556 C.ar    
  19 C19            9.2503    -3.7510     3.5532 C.2     
  20 C20           10.1996    -4.6049     3.8801 C.2     
  21 S21            9.6112    -6.2559     3.8588 S.3     
  22 C22            6.7518    -3.7345     2.8782 C.ar    
  23 C23            5.6256    -4.5003     2.6382 C.ar    
  24 C24            5.6810    -5.8918     2.7688 C.ar    
  25 C25            6.8454    -6.5009     3.1280 C.ar    
  26 H26           -0.5970     1.9402    -0.8189 H       
  27 H27           -0.9932    -0.3839     0.2327 H       
  28 H28            0.3116    -0.3596    -0.9808 H       
  29 H29            2.0051    -0.1997     0.7721 H       
  30 H30           -0.3134    -0.2441     2.7564 H       
  31 H31            1.4225    -0.1310     3.1432 H       
  32 H32            0.4916     2.1641     3.2222 H       
  33 H33            2.1103     3.1320     1.7526 H       
  34 H34            2.6803     1.4359     1.6930 H       
  35 H35            2.0825     1.3130    -0.5261 H       
  36 H36            1.5125     3.0091    -0.4665 H       
  37 H37           -1.6113     3.6021     0.5880 H       
  38 H38           -1.2304     3.6792     2.3250 H       
  39 H39            0.0481     3.9652     1.1200 H       
  40 H40            1.1453    -4.5094     1.4328 H       
  41 H41            3.2297    -5.6833     2.0907 H       
  42 H42            5.1657    -1.8614     2.2962 H       
  43 H43            9.4174    -2.6850     3.5092 H       
  44 H44           11.2118    -4.3230     4.1296 H       
  45 H45            6.7052    -2.6603     2.7767 H       
  46 H46            4.7987    -6.4855     2.5807 H       
  47 H47            6.8783    -7.5759     3.2263 H       
@<TRIPOS>BOND
   1    1    2 1
   2    1    7 1
   3    1    8 1
   4    1   26 1
   5    2    3 1
   6    2   27 1
   7    2   28 1
   8    3    4 1
   9    3   10 1
  10    3   29 1
  11    4    5 1
  12    4   30 1
  13    4   31 1
  14    5    6 1
  15    5    8 1
  16    5   32 1
  17    6    7 1
  18    6   33 1
  19    6   34 1
  20    7   35 1
  21    7   36 1
  22    8    9 1
  23    9   37 1
  24    9   38 1
  25    9   39 1
  26   10   11 1
  27   11   12 ar
  28   11   16 ar
  29   12   13 ar
  30   12   40 1
  31   13   14 ar
  32   13   41 1
  33   14   15 ar
  34   14   23 1
  35   15   16 ar
  36   15   42 1
  37   17   18 ar
  38   17   21 1
  39   17   25 ar
  40   18   19 1
  41   18   22 ar
  42   19   20 2
  43   19   43 1
  44   20   21 1
  45   20   44 1
  46   22   23 ar
  47   22   45 1
  48   23   24 ar
  49   24   25 ar
  50   24   46 1
  51   25   47 1

#	End of record

