#	Name: ASD09200005
#	Creating user name:	WinNT
#	Creation time:	15. 06. 2019 21:21

#	Modifying user name:	WinNT
#	Modification time:	15. 06. 2019 21:21

#	Program:	/corina/corina34_cracker 3.40 0067  02.08.2006

@<TRIPOS>MOLECULE
ASD09200005
  35   37    0    0    0
SMALL
NO_CHARGES


@<TRIPOS>ATOM
   1 C1            -0.0083     1.3937    -0.0527 C.ar    
   2 C2             0.0125    -0.0024    -0.0720 C.ar    
   3 C3             1.2372    -0.6781    -0.1104 C.ar    
   4 C4             2.4206     0.0229    -0.1292 C.ar    
   5 C5             1.1858     2.0965    -0.0717 C.ar    
   6 C6             1.5110     3.5423    -0.0605 C.2     
   7 C7             2.4134     1.4163    -0.1102 C.ar    
   8 N8             3.4467     2.3396    -0.1229 N.am    
   9 C9             2.9828     3.6002    -0.0951 C.2     
  10 O10            3.6595     4.6122    -0.0986 O.2     
  11 N11            0.6708     4.5514    -0.0273 N.2     
  12 N12            1.1165     5.7619    -0.0220 N.pl3   
  13 C13            0.2280     6.8291     0.0131 C.ar    
  14 C14           -1.2517    -0.7619    -0.0516 C.2     
  15 C15           -1.5505     8.9620     0.0829 C.ar    
  16 C16           -2.0207     7.6641    -0.0394 C.ar    
  17 C17           -1.1401     6.6021    -0.0740 C.ar    
  18 C18            0.7072     8.1427     0.1425 C.ar    
  19 C19           -0.1976     9.2068     0.1764 C.ar    
  20 C20            2.1555     8.3973     0.2424 C.2     
  21 O21            2.9319     7.4660     0.3228 O.2     
  22 O22            2.6186     9.6628     0.2447 O.3     
  23 O23           -2.3138    -0.1728    -0.0179 O.2     
  24 O24           -1.2287    -2.1090    -0.0703 O.3     
  25 H25           -0.9496     1.9227    -0.0276 H       
  26 H26            1.2535    -1.7579    -0.1250 H       
  27 H27            3.3599    -0.5092    -0.1585 H       
  28 H28            4.3875     2.1050    -0.1483 H       
  29 H29            2.0721     5.9270    -0.0425 H       
  30 H30           -2.2484     9.7859     0.1086 H       
  31 H31           -3.0829     7.4828    -0.1116 H       
  32 H32           -1.5147     5.5936    -0.1692 H       
  33 H33            0.1632    10.2203     0.2712 H       
  34 H34            3.5761     9.7797     0.3120 H       
  35 H35           -2.0824    -2.5629    -0.0557 H       
@<TRIPOS>BOND
   1    1    2 ar
   2    1    5 ar
   3    1   25 1
   4    2    3 ar
   5    2   14 1
   6    3    4 ar
   7    3   26 1
   8    4    7 ar
   9    4   27 1
  10    5    7 ar
  11    5    6 1
  12    6    9 1
  13    6   11 2
  14    7    8 1
  15    8    9 am
  16    8   28 1
  17    9   10 2
  18   11   12 1
  19   12   13 1
  20   12   29 1
  21   13   18 ar
  22   13   17 ar
  23   14   23 2
  24   14   24 1
  25   15   16 ar
  26   15   19 ar
  27   15   30 1
  28   16   17 ar
  29   16   31 1
  30   17   32 1
  31   18   19 ar
  32   18   20 1
  33   19   33 1
  34   20   21 2
  35   20   22 1
  36   22   34 1
  37   24   35 1

#	End of record

