#	Name: ASD01917126
#	Creating user name:	WinNT
#	Creation time:	15. 06. 2019 20:08

#	Modifying user name:	WinNT
#	Modification time:	15. 06. 2019 20:08

#	Program:	/corina/corina34_cracker 3.40 0067  02.08.2006

@<TRIPOS>MOLECULE
ASD01917126
  37   38    0    0    0
SMALL
NO_CHARGES


@<TRIPOS>ATOM
   1 C1            -0.0184     1.5028     0.0103 C.3     
   2 C2             0.0021    -0.0041     0.0020 C.2     
   3 N3             0.0221    -0.7751     1.0571 N.2     
   4 C4             0.0362    -2.0604     0.6790 C.2     
   5 N5             0.0250    -2.1134    -0.6350 N.2     
   6 N6            -0.0030    -0.7860    -1.0924 N.pl3   
   7 C7            -0.0239    -0.3402    -2.4878 C.3     
   8 C8            -1.4516    -0.2134    -2.9533 C.2     
   9 O9            -1.7156     0.1837    -4.2081 O.3     
  10 O10           -2.3586    -0.4692    -2.1972 O.2     
  11 C11            0.0604    -3.2302     1.5916 C.ar    
  12 C12            1.4170     2.0324    -0.0006 C.3     
  13 C13            0.0733    -4.5225     1.0700 C.ar    
  14 C14            0.0760    -3.0386     2.9719 C.ar    
  15 C15            0.0984    -4.1277     3.8177 C.ar    
  16 C16            0.1054    -5.4139     3.2953 C.ar    
  17 C17            0.0957    -5.6078     1.9206 C.ar    
  18 O18            0.1275    -6.4850     4.1310 O.3     
  19 C19            0.1336    -7.7797     3.5261 C.3     
  20 F20           -1.0172    -7.9353     2.7459 F       
  21 F21            1.2670    -7.9110     2.7167 F       
  22 C22            1.3963     3.5622     0.0079 C.3     
  23 H23           -0.5455     1.8639    -0.8728 H       
  24 H24           -0.5286     1.8543     0.9071 H       
  25 H25            0.4715     0.6275    -2.5675 H       
  26 H26            0.4978    -1.0678    -3.1095 H       
  27 H27           -2.6466     0.2500    -4.4608 H       
  28 H28            1.9442     1.6713     0.8825 H       
  29 H29            1.9272     1.6808    -0.8974 H       
  30 H30            0.0653    -4.6739     0.0007 H       
  31 H31            0.0709    -2.0382     3.3789 H       
  32 H32            0.1109    -3.9798     4.8874 H       
  33 H33            0.1008    -6.6095     1.5170 H       
  34 H34            0.1517    -8.5437     4.3033 H       
  35 H35            0.8691     3.9233    -0.8752 H       
  36 H36            0.8861     3.9137     0.9047 H       
  37 H37            2.4189     3.9395     0.0001 H       
@<TRIPOS>BOND
   1    1    2 1
   2    1   12 1
   3    1   23 1
   4    1   24 1
   5    2    3 2
   6    2    6 1
   7    3    4 1
   8    4    5 2
   9    4   11 1
  10    5    6 1
  11    6    7 1
  12    7    8 1
  13    7   25 1
  14    7   26 1
  15    8    9 1
  16    8   10 2
  17    9   27 1
  18   11   13 ar
  19   11   14 ar
  20   12   22 1
  21   12   28 1
  22   12   29 1
  23   13   17 ar
  24   13   30 1
  25   14   15 ar
  26   14   31 1
  27   15   16 ar
  28   15   32 1
  29   16   17 ar
  30   16   18 1
  31   17   33 1
  32   18   19 1
  33   19   20 1
  34   19   21 1
  35   19   34 1
  36   22   35 1
  37   22   36 1
  38   22   37 1

#	End of record

