#	Name: ASD07930110
#	Creating user name:	WinNT
#	Creation time:	15. 06. 2019 21:11

#	Modifying user name:	WinNT
#	Modification time:	15. 06. 2019 21:11

#	Program:	/corina/corina34_cracker 3.40 0067  02.08.2006

@<TRIPOS>MOLECULE
ASD07930110
  50   50    0    0    0
SMALL
NO_CHARGES


@<TRIPOS>ATOM
   1 C1             0.4355    -1.8230     0.1446 C.2     
   2 N2             1.3459    -1.2147    -0.6412 N.am    
   3 O3            -0.1167    -1.1968     1.0385 O.co2   
   4 O4             0.1576    -2.9999    -0.0394 O.co2   
   5 C5             2.1454     0.5067     0.9013 C.3     
   6 C6             1.5945     0.2218    -0.4974 C.3     
   7 C7             0.2853     0.9883    -0.6958 C.3     
   8 O8             2.3272     1.9147     1.0640 O.3     
   9 C9             2.8952     2.3334     2.2257 C.ar    
  10 C10            3.0116     3.6899     2.4926 C.ar    
  11 C11            3.5887     4.1134     3.6738 C.ar    
  12 C12            4.0505     3.1856     4.5909 C.ar    
  13 C13            3.9358     1.8326     4.3264 C.ar    
  14 C14            3.3539     1.4050     3.1484 C.ar    
  15 C15            2.7723     6.1126     2.0212 C.3     
  16 C16            2.5092     4.7006     1.4940 C.3     
  17 C17            3.2392     4.5089     0.1631 C.3     
  18 C18            1.0062     4.5065     1.2840 C.3     
  19 F19            4.1467     6.2902     2.2133 F       
  20 F20            2.3060     7.0509     1.0942 F       
  21 F21            2.1049     6.2879     3.2382 F       
  22 Cl22           4.7755     3.7204     6.0749 Cl      
  23 C23            2.0871    -1.9901    -1.6391 C.3     
  24 C24            1.1045    -2.6180    -2.6296 C.3     
  25 C25            3.0490    -1.0675    -2.3903 C.3     
  26 C26            2.8817    -3.0946    -0.9394 C.3     
  27 H27            1.4419     0.1423     1.6499 H       
  28 H28            3.1025     0.0000     1.0249 H       
  29 H29            2.3198     0.5417    -1.2456 H       
  30 H30           -0.4399     0.6684     0.0524 H       
  31 H31            0.4703     2.0572    -0.5889 H       
  32 H32           -0.1071     0.7854    -1.6923 H       
  33 H33            3.6798     5.1693     3.8818 H       
  34 H34            4.2971     1.1100     5.0431 H       
  35 H35            3.2601     0.3486     2.9444 H       
  36 H36            3.0517     3.5030    -0.2125 H       
  37 H37            2.8758     5.2400    -0.5592 H       
  38 H38            4.3099     4.6473     0.3127 H       
  39 H39            0.4798     4.7092     2.2167 H       
  40 H40            0.6556     5.1920     0.5125 H       
  41 H41            0.8124     3.4799     0.9732 H       
  42 H42            0.5384    -1.8311    -3.1281 H       
  43 H43            1.6559    -3.1949    -3.3721 H       
  44 H44            0.4192    -3.2753    -2.0944 H       
  45 H45            3.7490    -0.6202    -1.6846 H       
  46 H46            3.6004    -1.6444    -3.1327 H       
  47 H47            2.4829    -0.2806    -2.8887 H       
  48 H48            2.1964    -3.7519    -0.4042 H       
  49 H49            3.4331    -3.6715    -1.6818 H       
  50 H50            3.5817    -2.6473    -0.2337 H       
@<TRIPOS>BOND
   1    1    2 am
   2    1    3 ar
   3    1    4 ar
   4    2    6 1
   5    2   23 1
   6    5    6 1
   7    5    8 1
   8    5   27 1
   9    5   28 1
  10    6    7 1
  11    6   29 1
  12    7   30 1
  13    7   31 1
  14    7   32 1
  15    8    9 1
  16    9   10 ar
  17    9   14 ar
  18   10   11 ar
  19   10   16 1
  20   11   12 ar
  21   11   33 1
  22   12   13 ar
  23   12   22 1
  24   13   14 ar
  25   13   34 1
  26   14   35 1
  27   15   16 1
  28   15   19 1
  29   15   20 1
  30   15   21 1
  31   16   17 1
  32   16   18 1
  33   17   36 1
  34   17   37 1
  35   17   38 1
  36   18   39 1
  37   18   40 1
  38   18   41 1
  39   23   24 1
  40   23   26 1
  41   23   25 1
  42   24   42 1
  43   24   43 1
  44   24   44 1
  45   25   45 1
  46   25   46 1
  47   25   47 1
  48   26   48 1
  49   26   49 1
  50   26   50 1

#	End of record

