#	Name: ASD01152540
#	Creating user name:	WinNT
#	Creation time:	15. 06. 2019 19:06

#	Modifying user name:	WinNT
#	Modification time:	15. 06. 2019 19:06

#	Program:	/corina/corina34_cracker 3.40 0067  02.08.2006

@<TRIPOS>MOLECULE
ASD01152540
  52   55    0    0    0
SMALL
NO_CHARGES


@<TRIPOS>ATOM
   1 C1             0.1165     1.1520    -0.7090 C.2     
   2 N2             0.0221    -0.1483    -0.6271 N.2     
   3 N3            -1.1176    -0.7676    -0.1145 N.am    
   4 C4            -2.2573    -0.0984     0.1263 C.2     
   5 C5            -2.3866     1.3536    -0.2698 C.3     
   6 C6            -1.0011     1.9717    -0.2166 C.2     
   7 C7            -2.9514     1.4554    -1.6881 C.3     
   8 O8            -0.8264     3.0958     0.2064 O.2     
   9 C9            -1.0724    -2.1395     0.1591 C.ar    
  10 O10           -3.1865    -0.6626     0.6636 O.2     
  11 C11           -3.1926     2.9031    -2.0300 C.ar    
  12 C12           -0.0093    -2.6698     0.8765 C.ar    
  13 C13           -2.0947    -2.9707    -0.2822 C.ar    
  14 C14           -2.0513    -4.3247    -0.0123 C.ar    
  15 C15           -0.9911    -4.8572     0.6980 C.ar    
  16 C16            0.0321    -4.0300     1.1463 C.ar    
  17 C17           -2.1977     3.6325    -2.6165 C.ar    
  18 C18           -4.4263     3.4781    -1.7501 C.ar    
  19 C19           -4.6680     4.7869    -2.0516 C.ar    
  20 C20           -2.4149     4.9708    -2.9352 C.ar    
  21 Cl21          -0.9410    -6.5594     1.0355 Cl      
  22 C22           -3.6628     5.5566    -2.6480 C.ar    
  23 C23           -3.5767     6.9438    -3.0926 C.2     
  24 N24           -2.3849     7.1309    -3.5836 N.2     
  25 N25           -1.6445     5.9464    -3.5122 N.pl3   
  26 C26           -0.2631     5.7786    -3.9701 C.3     
  27 O27            1.2264     1.7353    -1.2329 O.3     
  28 C28            2.2666     0.8643    -1.6816 C.3     
  29 N29            1.1024    -4.5686     1.8699 N.am    
  30 C30            1.7658    -3.8050     2.7606 C.2     
  31 O31            1.4963    -2.6275     2.8695 O.2     
  32 C32            2.8423    -4.4144     3.6214 C.3     
  33 H33           -3.0456     1.8694     0.4286 H       
  34 H34           -2.2390     1.0290    -2.3944 H       
  35 H35           -3.8918     0.9071    -1.7449 H       
  36 H36            0.7845    -2.0250     1.2237 H       
  37 H37           -2.9244    -2.5576    -0.8366 H       
  38 H38           -2.8471    -4.9687    -0.3564 H       
  39 H39           -1.2446     3.1725    -2.8322 H       
  40 H40           -5.2015     2.8834    -1.2898 H       
  41 H41           -5.6297     5.2262    -1.8315 H       
  42 H42           -4.3610     7.6833    -3.0263 H       
  43 H43            0.4209     6.0069    -3.1526 H       
  44 H44           -0.1104     4.7494    -4.2949 H       
  45 H45           -0.0719     6.4547    -4.8034 H       
  46 H46            2.6200     0.2598    -0.8462 H       
  47 H47            1.8813     0.2115    -2.4650 H       
  48 H48            3.0920     1.4570    -2.0760 H       
  49 H49            1.3668    -5.4914     1.7302 H       
  50 H50            3.6289    -4.8211     2.9858 H       
  51 H51            3.2620    -3.6491     4.2743 H       
  52 H52            2.4146    -5.2137     4.2266 H       
@<TRIPOS>BOND
   1    1    2 2
   2    1   27 1
   3    1    6 1
   4    2    3 1
   5    3    4 am
   6    3    9 1
   7    4    5 1
   8    4   10 2
   9    5    6 1
  10    5    7 1
  11    5   33 1
  12    6    8 2
  13    7   11 1
  14    7   34 1
  15    7   35 1
  16    9   12 ar
  17    9   13 ar
  18   11   17 ar
  19   11   18 ar
  20   12   16 ar
  21   12   36 1
  22   13   14 ar
  23   13   37 1
  24   14   15 ar
  25   14   38 1
  26   15   16 ar
  27   15   21 1
  28   16   29 1
  29   17   20 ar
  30   17   39 1
  31   18   19 ar
  32   18   40 1
  33   19   22 ar
  34   19   41 1
  35   20   22 ar
  36   20   25 1
  37   22   23 1
  38   23   24 2
  39   23   42 1
  40   24   25 1
  41   25   26 1
  42   26   43 1
  43   26   44 1
  44   26   45 1
  45   27   28 1
  46   28   46 1
  47   28   47 1
  48   28   48 1
  49   29   30 am
  50   29   49 1
  51   30   31 2
  52   30   32 1
  53   32   50 1
  54   32   51 1
  55   32   52 1

#	End of record

