#	Name: ASD01948204
#	Creating user name:	WinNT
#	Creation time:	15. 06. 2019 20:13

#	Modifying user name:	WinNT
#	Modification time:	15. 06. 2019 20:13

#	Program:	/corina/corina34_cracker 3.40 0067  02.08.2006

@<TRIPOS>MOLECULE
ASD01948204
  47   49    0    0    0
SMALL
NO_CHARGES


@<TRIPOS>ATOM
   1 C1             0.5790     0.3376     0.9820 C.ar    
   2 C2            -0.0704     0.1640    -0.2145 C.ar    
   3 C3             0.5549     0.4991    -1.4209 C.ar    
   4 C4             1.8487     1.0139    -1.4089 C.ar    
   5 C5             2.5129     1.1926    -0.2026 C.ar    
   6 C6             1.8787     0.8540     1.0029 C.ar    
   7 C7            -1.4404    -0.3557    -0.5748 C.3     
   8 N8            -1.5350    -0.2890    -2.0372 N.am    
   9 C9            -0.3838     0.2042    -2.5245 C.2     
  10 C10            4.6977    -0.5257     0.0367 C.ar    
  11 C11            4.8961     0.8464    -0.0334 C.ar    
  12 N12            3.8036     1.7057    -0.1889 N.pl3   
  13 C13            5.7790    -1.3721     0.1908 C.ar    
  14 C14            7.0581    -0.8549     0.2758 C.ar    
  15 C15            7.2614     0.5116     0.2061 C.ar    
  16 C16            6.1845     1.3647     0.0519 C.ar    
  17 F17            6.3829     2.6993    -0.0162 F       
  18 Si18           8.5158    -2.0042     0.4848 Si      
  19 O19           -0.1482     0.3825    -3.7032 O.2     
  20 C20            2.5799     1.0423     2.2867 C.2     
  21 O21            3.6665     1.5853     2.3115 O.2     
  22 C22            9.1619    -2.4987    -1.1912 C.3     
  23 C23            9.8606    -1.1348     1.4369 C.3     
  24 C24            7.9788    -3.5252     1.4169 C.3     
  25 O25            2.0155     0.6120     3.4321 O.3     
  26 C26            2.7626     0.8306     4.6579 C.3     
  27 H27            0.0851     0.0797     1.9072 H       
  28 H28            2.3355     1.2736    -2.3374 H       
  29 H29           -1.5497    -1.3870    -0.2393 H       
  30 H30           -2.2093     0.2695    -0.1210 H       
  31 H31           -2.3026    -0.5576    -2.5659 H       
  32 H32            3.6985    -0.9311    -0.0248 H       
  33 H33            3.9473     2.6599    -0.2872 H       
  34 H34            5.6244    -2.4396     0.2454 H       
  35 H35            8.2620     0.9124     0.2732 H       
  36 H36            9.4761    -1.6088    -1.7365 H       
  37 H37           10.0125    -3.1694    -1.0692 H       
  38 H38            8.3751    -3.0074    -1.7482 H       
  39 H39            9.4826    -0.8454     2.4175 H       
  40 H40           10.7112    -1.8054     1.5589 H       
  41 H41           10.1748    -0.2449     0.8916 H       
  42 H42            7.1920    -4.0338     0.8598 H       
  43 H43            8.8294    -4.1958     1.5389 H       
  44 H44            7.6008    -3.2358     2.3975 H       
  45 H45            3.7229     0.3189     4.5943 H       
  46 H46            2.9286     1.8990     4.7965 H       
  47 H47            2.1970     0.4382     5.5030 H       
@<TRIPOS>BOND
   1    1    2 ar
   2    1    6 ar
   3    1   27 1
   4    2    3 ar
   5    2    7 1
   6    3    4 ar
   7    3    9 1
   8    4    5 ar
   9    4   28 1
  10    5    6 ar
  11    5   12 1
  12    6   20 1
  13    7    8 1
  14    7   29 1
  15    7   30 1
  16    8    9 am
  17    8   31 1
  18    9   19 2
  19   10   11 ar
  20   10   13 ar
  21   10   32 1
  22   11   12 1
  23   11   16 ar
  24   12   33 1
  25   13   14 ar
  26   13   34 1
  27   14   15 ar
  28   14   18 1
  29   15   16 ar
  30   15   35 1
  31   16   17 1
  32   18   22 1
  33   18   23 1
  34   18   24 1
  35   20   21 2
  36   20   25 1
  37   22   36 1
  38   22   37 1
  39   22   38 1
  40   23   39 1
  41   23   40 1
  42   23   41 1
  43   24   42 1
  44   24   43 1
  45   24   44 1
  46   25   26 1
  47   26   45 1
  48   26   46 1
  49   26   47 1

#	End of record

