#	Name: ASD01140150
#	Creating user name:	WinNT
#	Creation time:	15. 06. 2019 19:00

#	Modifying user name:	WinNT
#	Modification time:	15. 06. 2019 19:00

#	Program:	/corina/corina34_cracker 3.40 0067  02.08.2006

@<TRIPOS>MOLECULE
ASD01140150
  57   60    0    0    0
SMALL
NO_CHARGES


@<TRIPOS>ATOM
   1 O1            -0.4247     1.6245     0.2118 O.3     
   2 C2            -0.3675     0.1967     0.2217 C.3     
   3 C3             0.4218    -0.2907    -0.9952 C.3     
   4 C4            -0.2692     0.1848    -2.2746 C.3     
   5 C5            -1.6902    -0.3804    -2.3288 C.3     
   6 C6            -2.4779     0.1028    -1.1091 C.3     
   7 C7            -1.7874    -0.3710     0.1692 C.3     
   8 C8            -3.8989    -0.4611    -1.1624 C.3     
   9 C9            -4.5915     0.0172    -2.4403 C.3     
  10 C10           -3.8061    -0.4705    -3.6583 C.3     
  11 C11           -2.3810     0.1020    -3.6051 C.3     
  12 C12           -1.5681    -0.3060    -4.8290 C.3     
  13 C13           -2.2814     0.0898    -6.1331 C.3     
  14 C14           -3.6460    -0.5707    -6.1190 C.3     
  15 C15           -4.4459     0.0374    -4.9368 C.3     
  16 C16           -5.8625    -0.4720    -5.2252 C.3     
  17 C17           -5.9875    -0.2949    -6.7629 C.3     
  18 C18           -4.5439    -0.3041    -7.3228 C.3     
  19 C19           -4.2127     1.0325    -7.9350 C.2     
  20 O20           -4.7475     2.0341    -7.5239 O.2     
  21 C21           -3.2141     1.1191    -9.0604 C.3     
  22 C22           -3.4886    -2.0788    -5.9149 C.3     
  23 C23           -1.6321    -1.9093    -2.3262 C.3     
  24 H24            0.4416     2.0531     0.2432 H       
  25 H25            0.1253    -0.1409     1.1335 H       
  26 H26            1.4337     0.1126    -0.9573 H       
  27 H27            0.4641    -1.3798    -0.9884 H       
  28 H28           -0.3110     1.2740    -2.2814 H       
  29 H29            0.2931    -0.1623    -3.1415 H       
  30 H30           -2.5209     1.1920    -1.1131 H       
  31 H31           -1.7424    -1.4601     0.1757 H       
  32 H32           -2.3505    -0.0252     1.0361 H       
  33 H33           -3.8577    -1.5503    -1.1575 H       
  34 H34           -4.4597    -0.1152    -0.2941 H       
  35 H35           -5.6044    -0.3839    -2.4765 H       
  36 H36           -4.6316     1.1064    -2.4461 H       
  37 H37           -3.7643    -1.5597    -3.6574 H       
  38 H38           -2.4394     1.1902    -3.5814 H       
  39 H39           -0.5957     0.1851    -4.7912 H       
  40 H40           -1.4218    -1.3860    -4.8162 H       
  41 H41           -2.3942     1.1729    -6.1801 H       
  42 H42           -1.7081    -0.2618    -6.9908 H       
  43 H43           -4.4081     1.1262    -4.9714 H       
  44 H44           -5.9587    -1.5219    -4.9486 H       
  45 H45           -6.6040     0.1346    -4.7054 H       
  46 H46           -6.5594    -1.1192    -7.1891 H       
  47 H47           -6.4715     0.6545    -6.9919 H       
  48 H48           -4.4303    -1.0974    -8.0616 H       
  49 H49           -2.8410     0.1217    -9.2926 H       
  50 H50           -3.6962     1.5412    -9.9422 H       
  51 H51           -2.3829     1.7572    -8.7602 H       
  52 H52           -2.9135    -2.2646    -5.0078 H       
  53 H53           -4.4729    -2.5375    -5.8214 H       
  54 H54           -2.9672    -2.5087    -6.7702 H       
  55 H55           -1.1392    -2.2526    -1.4166 H       
  56 H56           -2.6445    -2.3114    -2.3648 H       
  57 H57           -1.0712    -2.2530    -3.1953 H       
@<TRIPOS>BOND
   1    1    2 1
   2    1   24 1
   3    2    3 1
   4    2    7 1
   5    2   25 1
   6    3    4 1
   7    3   26 1
   8    3   27 1
   9    4    5 1
  10    4   28 1
  11    4   29 1
  12    5   23 1
  13    5    6 1
  14    5   11 1
  15    6    7 1
  16    6    8 1
  17    6   30 1
  18    7   31 1
  19    7   32 1
  20    8    9 1
  21    8   33 1
  22    8   34 1
  23    9   10 1
  24    9   35 1
  25    9   36 1
  26   10   11 1
  27   10   15 1
  28   10   37 1
  29   11   12 1
  30   11   38 1
  31   12   13 1
  32   12   39 1
  33   12   40 1
  34   13   14 1
  35   13   41 1
  36   13   42 1
  37   14   22 1
  38   14   15 1
  39   14   18 1
  40   15   16 1
  41   15   43 1
  42   16   17 1
  43   16   44 1
  44   16   45 1
  45   17   18 1
  46   17   46 1
  47   17   47 1
  48   18   19 1
  49   18   48 1
  50   19   20 2
  51   19   21 1
  52   21   49 1
  53   21   50 1
  54   21   51 1
  55   22   52 1
  56   22   53 1
  57   22   54 1
  58   23   55 1
  59   23   56 1
  60   23   57 1

#	End of record

