#	Name: ASD00310282
#	Creating user name:	WinNT
#	Creation time:	15. 06. 2019 18:34

#	Modifying user name:	WinNT
#	Modification time:	15. 06. 2019 18:34

#	Program:	/corina/corina34_cracker 3.40 0067  02.08.2006

@<TRIPOS>MOLECULE
ASD00310282
  51   52    0    0    0
SMALL
NO_CHARGES


@<TRIPOS>ATOM
   1 N1            -0.0179     1.4666     0.0101 N.am    
   2 C2             0.0021    -0.0041     0.0020 C.3     
   3 C3             0.9085    -0.4723    -1.1414 C.3     
   4 N4             2.2251     0.1660    -1.0110 N.3     
   5 C5             2.1249     1.6258    -1.1417 C.3     
   6 C6             1.2683     2.1800     0.0017 C.3     
   7 C7            -1.1838     2.1425     0.0194 C.2     
   8 O8            -2.2372     1.5369     0.0211 O.2     
   9 O9            -1.1814     3.4889     0.0267 O.3     
  10 C10            3.1764    -0.3856    -1.9851 C.3     
  11 C11            4.4490     0.4638    -1.9925 C.3     
  12 C12            5.4397    -0.1108    -3.0069 C.3     
  13 O13            6.6283     0.6825    -3.0138 O.3     
  14 C14            7.6172     0.3050    -3.8664 C.ar    
  15 C15            8.7983     1.0302    -3.9248 C.ar    
  16 C16            9.8021     0.6449    -4.7921 C.ar    
  17 C17            9.6300    -0.4631    -5.6024 C.ar    
  18 C18            8.4528    -1.1877    -5.5457 C.ar    
  19 C19            7.4490    -0.8094    -4.6754 C.ar    
  20 Br20          11.0053    -0.9876    -6.7896 Br      
  21 C21           -2.4739     4.1504     0.0364 C.3     
  22 C22           -3.2505     3.7339     1.2872 C.3     
  23 C23           -2.2707     5.6668     0.0437 C.3     
  24 C24           -3.2625     3.7475    -1.2112 C.3     
  25 H25            0.3920    -0.3702     0.9518 H       
  26 H26           -1.0081    -0.3831    -0.1529 H       
  27 H27            1.0231    -1.5553    -1.0945 H       
  28 H28            0.4625    -0.1944    -2.0963 H       
  29 H29            3.1216     2.0644    -1.0951 H       
  30 H30            1.6619     1.8745    -2.0966 H       
  31 H31            1.0953     3.2449    -0.1535 H       
  32 H32            1.7799     2.0238     0.9514 H       
  33 H33            3.4252    -1.4105    -1.7096 H       
  34 H34            2.7268    -0.3752    -2.9780 H       
  35 H35            4.2002     1.4886    -2.2679 H       
  36 H36            4.8985     0.4533    -0.9995 H       
  37 H37            5.6885    -1.1357    -2.7315 H       
  38 H38            4.9902    -0.1004    -3.9999 H       
  39 H39            8.9329     1.8956    -3.2929 H       
  40 H40           10.7218     1.2092    -4.8379 H       
  41 H41            8.3204    -2.0524    -6.1791 H       
  42 H42            6.5319    -1.3779    -4.6282 H       
  43 H43           -2.6887     4.0209     2.1760 H       
  44 H44           -4.2208     4.2305     1.2945 H       
  45 H45           -3.3953     2.6536     1.2820 H       
  46 H46           -1.7174     5.9635    -0.8473 H       
  47 H47           -3.2410     6.1634     0.0511 H       
  48 H48           -1.7089     5.9538     0.9326 H       
  49 H49           -3.4073     2.6671    -1.2164 H       
  50 H50           -4.2328     4.2440    -1.2039 H       
  51 H51           -2.7092     4.0442    -2.1023 H       
@<TRIPOS>BOND
   1    1    2 1
   2    1    6 1
   3    1    7 am
   4    2    3 1
   5    2   25 1
   6    2   26 1
   7    3    4 1
   8    3   27 1
   9    3   28 1
  10    4    5 1
  11    4   10 1
  12    5    6 1
  13    5   29 1
  14    5   30 1
  15    6   31 1
  16    6   32 1
  17    7    8 2
  18    7    9 1
  19    9   21 1
  20   10   11 1
  21   10   33 1
  22   10   34 1
  23   11   12 1
  24   11   35 1
  25   11   36 1
  26   12   13 1
  27   12   37 1
  28   12   38 1
  29   13   14 1
  30   14   15 ar
  31   14   19 ar
  32   15   16 ar
  33   15   39 1
  34   16   17 ar
  35   16   40 1
  36   17   18 ar
  37   17   20 1
  38   18   19 ar
  39   18   41 1
  40   19   42 1
  41   21   22 1
  42   21   24 1
  43   21   23 1
  44   22   43 1
  45   22   44 1
  46   22   45 1
  47   23   46 1
  48   23   47 1
  49   23   48 1
  50   24   49 1
  51   24   50 1
  52   24   51 1

#	End of record

