#	Name: ASD00960268
#	Creating user name:	WinNT
#	Creation time:	15. 06. 2019 18:53

#	Modifying user name:	WinNT
#	Modification time:	15. 06. 2019 18:53

#	Program:	/corina/corina34_cracker 3.40 0067  02.08.2006

@<TRIPOS>MOLECULE
ASD00960268
  40   43    0    0    0
SMALL
NO_CHARGES


@<TRIPOS>ATOM
   1 C1            -0.0169     1.3963     0.0097 C.2     
   2 C2             0.0021    -0.0041     0.0020 C.2     
   3 N3             1.2817     1.8198    -0.0004 N.pl3   
   4 C4             2.1031     0.7243    -0.0004 C.2     
   5 C5             1.3601    -0.3921    -0.0068 C.2     
   6 N6             1.8018     3.1232     0.0041 N.2     
   7 C7             3.0697     3.2833    -0.2329 C.2     
   8 N8             3.8960     2.2206    -0.5255 N.pl3   
   9 C9             3.6079     0.8811     0.0175 C.3     
  10 N10            4.1079     0.7780     1.3950 N.3     
  11 C11           -1.1708    -0.9013     0.0033 C.2     
  12 N12           -1.3233    -2.0626    -0.7029 N.pl3   
  13 N13           -2.4837    -2.5463    -0.4273 N.2     
  14 N14           -3.1031    -1.7891     0.4063 N.2     
  15 C15           -2.3291    -0.7468     0.7162 C.2     
  16 C16           -1.1688     2.2204     0.0199 C.2     
  17 O17           -2.2768     1.7173     0.0226 O.2     
  18 O18           -1.0375     3.5637     0.0265 O.3     
  19 C19           -2.2416     4.3332     0.0366 C.3     
  20 C20           -1.8997     5.8009     0.0429 C.ar    
  21 C21           -1.7489     6.4805    -1.1513 C.ar    
  22 C22           -1.4353     7.8268    -1.1455 C.ar    
  23 C23           -1.2730     8.4936     0.0545 C.ar    
  24 C24           -1.4248     7.8141     1.2487 C.ar    
  25 C25           -1.7426     6.4688     1.2430 C.ar    
  26 H26            1.7331    -1.4056    -0.0162 H       
  27 H27            3.4875     4.2786    -0.1997 H       
  28 H28            4.6719     2.3547    -1.0920 H       
  29 H29            4.0708     0.1173    -0.6072 H       
  30 H30            5.1050     0.9282     1.4299 H       
  31 H31            3.6240     1.4204     2.0043 H       
  32 H32           -0.6713    -2.4530    -1.3058 H       
  33 H33           -2.5711     0.0612     1.3907 H       
  34 H34           -2.8288     4.1007    -0.8517 H       
  35 H35           -2.8200     4.0910     0.9282 H       
  36 H36           -1.8756     5.9596    -2.0888 H       
  37 H37           -1.3167     8.3576    -2.0786 H       
  38 H38           -1.0273     9.5452     0.0590 H       
  39 H39           -1.2976     8.3349     2.1862 H       
  40 H40           -1.8649     5.9388     2.1760 H       
@<TRIPOS>BOND
   1    1    2 2
   2    1    3 1
   3    1   16 1
   4    2   11 1
   5    2    5 1
   6    3    4 1
   7    3    6 1
   8    4    5 2
   9    4    9 1
  10    5   26 1
  11    6    7 2
  12    7    8 1
  13    7   27 1
  14    8    9 1
  15    8   28 1
  16    9   10 1
  17    9   29 1
  18   10   30 1
  19   10   31 1
  20   11   12 1
  21   11   15 2
  22   12   13 1
  23   12   32 1
  24   13   14 2
  25   14   15 1
  26   15   33 1
  27   16   17 2
  28   16   18 1
  29   18   19 1
  30   19   20 1
  31   19   34 1
  32   19   35 1
  33   20   21 ar
  34   20   25 ar
  35   21   22 ar
  36   21   36 1
  37   22   23 ar
  38   22   37 1
  39   23   24 ar
  40   23   38 1
  41   24   25 ar
  42   24   39 1
  43   25   40 1

#	End of record

