#	Name: ASD02408062
#	Creating user name:	WinNT
#	Creation time:	15. 06. 2019 20:21

#	Modifying user name:	WinNT
#	Modification time:	15. 06. 2019 20:21

#	Program:	/corina/corina34_cracker 3.40 0067  02.08.2006

@<TRIPOS>MOLECULE
ASD02408062
  43   45    0    0    0
SMALL
NO_CHARGES


@<TRIPOS>ATOM
   1 C1             0.5496     0.6130    -0.0827 C.ar    
   2 C2             0.8212    -0.7216    -0.3165 C.ar    
   3 C3             1.6722     1.6182    -0.0636 C.3     
   4 C4             1.8813     2.1641    -1.4526 C.2     
   5 N5             2.8456     3.0833    -1.6527 N.am    
   6 N6             1.1256     1.7266    -2.4229 N.2     
   7 C7             1.2664     2.1753    -3.6768 C.2     
   8 C8             2.2498     3.1390    -3.9553 C.2     
   9 C9             3.0606     3.5932    -2.8836 C.2     
  10 N10            0.4585     1.6982    -4.6796 N.pl3   
  11 C11           -0.9713     1.4600    -4.4395 C.3     
  12 O12            3.9289     4.4283    -3.0694 O.2     
  13 C13           -0.2097    -1.6444    -0.3345 C.ar    
  14 C14           -1.5117    -1.2303    -0.1183 C.ar    
  15 C15           -1.7822     0.1050     0.1155 C.ar    
  16 C16           -0.7526     1.0271     0.1280 C.ar    
  17 Cl17           0.1307    -3.3211    -0.6287 Cl      
  18 C18           -1.3060     0.0207    -4.8436 C.3     
  19 C19           -0.8637    -0.2148    -6.2896 C.3     
  20 C20            0.6505    -0.0221    -6.3995 C.3     
  21 C21            1.0063     1.4220    -6.0146 C.3     
  22 C22           -1.2277    -1.6408    -6.7081 C.3     
  23 C23            2.4319     3.6439    -5.2829 C.1     
  24 N24            2.5764     4.0445    -6.3361 N.1     
  25 H25            1.8380    -1.0443    -0.4856 H       
  26 H26            1.4179     2.4341     0.6129 H       
  27 H27            2.5872     1.1345     0.2782 H       
  28 H28            3.3891     3.3811    -0.9065 H       
  29 H29           -1.1931     1.6036    -3.3820 H       
  30 H30           -1.5627     2.1541    -5.0366 H       
  31 H31           -2.3168    -1.9501    -0.1326 H       
  32 H32           -2.7988     0.4284     0.2842 H       
  33 H33           -0.9644     2.0702     0.3111 H       
  34 H34           -0.7828    -0.6730    -4.1855 H       
  35 H35           -2.3810    -0.1396    -4.7612 H       
  36 H36           -1.3687     0.4956    -6.9441 H       
  37 H37            1.1553    -0.7154    -5.7268 H       
  38 H38            0.9681    -0.2129    -7.4246 H       
  39 H39            0.5758     2.1106    -6.7417 H       
  40 H40            2.0899     1.5385    -5.9950 H       
  41 H41           -2.3063    -1.7779    -6.6310 H       
  42 H42           -0.9128    -1.8088    -7.7380 H       
  43 H43           -0.7234    -2.3515    -6.0534 H       
@<TRIPOS>BOND
   1    1    2 ar
   2    1    3 1
   3    1   16 ar
   4    2   13 ar
   5    2   25 1
   6    3    4 1
   7    3   26 1
   8    3   27 1
   9    4    5 1
  10    4    6 2
  11    5    9 am
  12    5   28 1
  13    6    7 1
  14    7    8 2
  15    7   10 1
  16    8    9 1
  17    8   23 1
  18    9   12 2
  19   10   11 1
  20   10   21 1
  21   11   18 1
  22   11   29 1
  23   11   30 1
  24   13   14 ar
  25   13   17 1
  26   14   15 ar
  27   14   31 1
  28   15   16 ar
  29   15   32 1
  30   16   33 1
  31   18   19 1
  32   18   34 1
  33   18   35 1
  34   19   20 1
  35   19   22 1
  36   19   36 1
  37   20   21 1
  38   20   37 1
  39   20   38 1
  40   21   39 1
  41   21   40 1
  42   22   41 1
  43   22   42 1
  44   22   43 1
  45   23   24 3

#	End of record

