#	Name: ASD00230008
#	Creating user name:	WinNT
#	Creation time:	15. 06. 2019 18:33

#	Modifying user name:	WinNT
#	Modification time:	15. 06. 2019 18:33

#	Program:	/corina/corina34_cracker 3.40 0067  02.08.2006

@<TRIPOS>MOLECULE
ASD00230008
  15   15    0    0    0
SMALL
NO_CHARGES


@<TRIPOS>ATOM
   1 O1            -0.0164     1.3567     0.0095 O.3     
   2 O2            -0.0209    -0.0108    -2.3798 O.3     
   3 O3             0.0246    -0.0364     2.3836 O.3     
   4 C4             0.0392    -2.7765    -0.0132 C.ar    
   5 C5             0.0417    -2.0937     1.1887 C.ar    
   6 C6             0.0230    -0.7072     1.2006 C.ar    
   7 C7             0.0021    -0.0041     0.0020 C.ar    
   8 C8            -0.0004    -0.6943    -1.2042 C.ar    
   9 C9             0.0180    -2.0808    -1.2075 C.ar    
  10 H10            0.8616     1.7620     0.0033 H       
  11 H11            0.8565     0.1986    -2.7283 H       
  12 H12            0.9083     0.1696     2.7178 H       
  13 H13            0.0580    -3.8563    -0.0192 H       
  14 H14            0.0583    -2.6408     2.1197 H       
  15 H15            0.0160    -2.6180    -2.1445 H       
@<TRIPOS>BOND
   1    1    7 1
   2    1   10 1
   3    2    8 1
   4    2   11 1
   5    3    6 1
   6    3   12 1
   7    4    5 ar
   8    4    9 ar
   9    4   13 1
  10    5    6 ar
  11    5   14 1
  12    6    7 ar
  13    7    8 ar
  14    8    9 ar
  15    9   15 1

#	End of record

