#	Name: ASD06390035
#	Creating user name:	WinNT
#	Creation time:	15. 06. 2019 21:06

#	Modifying user name:	WinNT
#	Modification time:	15. 06. 2019 21:06

#	Program:	/corina/corina34_cracker 3.40 0067  02.08.2006

@<TRIPOS>MOLECULE
ASD06390035
  71   75    0    0    0
SMALL
NO_CHARGES


@<TRIPOS>ATOM
   1 C1            -0.0378     1.3686    -0.0601 C.ar    
   2 C2            -0.0210    -0.0079    -0.0691 C.ar    
   3 C3            -1.2299    -0.7238    -0.0533 C.ar    
   4 C4            -2.4587    -0.0205    -0.0283 C.ar    
   5 C5            -2.4507     1.3955    -0.0195 C.ar    
   6 C6            -1.2440     2.0698    -0.0302 C.ar    
   7 C7            -3.7254     2.1483     0.0066 C.ar    
   8 C8            -4.3018     2.4999     1.2379 C.ar    
   9 C9            -4.3385     2.5060    -1.1862 C.ar    
  10 C10           -5.5444     3.2187    -1.1522 C.ar    
  11 C11           -6.1160     3.5613     0.0975 C.ar    
  12 C12           -5.4734     3.1926     1.2861 C.ar    
  13 Cl13          -3.5121     2.0460     2.7158 Cl      
  14 N14           -6.1778     3.5892    -2.2767 N.ar    
  15 C15           -7.3116     4.2599    -2.2142 C.ar    
  16 N16           -7.8822     4.6021    -1.0622 N.ar    
  17 C17           -7.3358     4.2827     0.1016 C.ar    
  18 N18           -7.9386     4.6445     1.2880 N.3     
  19 C19           -9.3866     4.8178     1.1114 C.3     
  20 C20          -10.0417     5.0398     2.4788 C.3     
  21 N21           -9.3587     6.1572     3.1482 N.am    
  22 C22           -7.8913     6.1201     3.2418 C.3     
  23 C23           -7.3209     5.8557     1.8444 C.3     
  24 C24          -10.0588     7.1880     3.6618 C.2     
  25 O25          -11.2609     7.2526     3.4890 O.2     
  26 C26           -9.3690     8.2348     4.4314 C.2     
  27 C27          -10.0401     9.3041     4.8494 C.2     
  28 N28           -7.9332     4.6232    -3.3958 N.pl3   
  29 C29           -7.3307     4.2623    -4.6815 C.3     
  30 C30           -8.2117     4.7791    -5.8206 C.3     
  31 C31           -7.5919     4.4078    -7.1431 C.2     
  32 O32           -6.5484     3.7906    -7.1718 O.2     
  33 N33           -8.1974     4.7617    -8.2941 N.am    
  34 C34           -7.5949     4.4007    -9.5798 C.3     
  35 C35           -9.4580     5.5073    -8.2595 C.3     
  36 C36           -1.2413    -2.1299    -0.0625 C.ar    
  37 C37           -2.4294    -2.7940    -0.0472 C.ar    
  38 C38           -3.6374    -2.1005    -0.0225 C.ar    
  39 C39           -3.6631    -0.7386    -0.0130 C.ar    
  40 O40            1.1358     2.0536    -0.0750 O.3     
  41 F41           -3.7777     2.1705    -2.3686 F       
  42 H42            0.9204    -0.5369    -0.0885 H       
  43 H43           -1.2347     3.1498    -0.0235 H       
  44 H44           -5.9088     3.4532     2.2394 H       
  45 H45           -9.5744     5.6816     0.4736 H       
  46 H46           -9.8059     3.9249     0.6478 H       
  47 H47          -11.0958     5.2825     2.3447 H       
  48 H48           -9.9447     4.1371     3.0821 H       
  49 H49           -7.5238     7.0771     3.6122 H       
  50 H50           -7.5877     5.3214     3.9184 H       
  51 H51           -6.2421     5.7154     1.9124 H       
  52 H52           -7.5375     6.7050     1.1964 H       
  53 H53           -8.3175     8.1349     4.6569 H       
  54 H54          -11.0915     9.4040     4.6239 H       
  55 H55           -9.5336    10.0727     5.4144 H       
  56 H56           -8.7678     5.1169    -3.3729 H       
  57 H57           -6.3397     4.7099    -4.7568 H       
  58 H58           -7.2457     3.1778    -4.7513 H       
  59 H59           -9.2027     4.3315    -5.7453 H       
  60 H60           -8.2966     5.8636    -5.7509 H       
  61 H61           -7.9686     3.4266    -9.8954 H       
  62 H62           -7.8569     5.1499   -10.3269 H       
  63 H63           -6.5110     4.3571    -9.4736 H       
  64 H64           -9.7481     5.6826    -7.2235 H       
  65 H65           -9.3289     6.4631    -8.7674 H       
  66 H66          -10.2349     4.9310    -8.7618 H       
  67 H67           -0.3122    -2.6800    -0.0820 H       
  68 H68           -2.4356    -3.8740    -0.0547 H       
  69 H69           -4.5667    -2.6505    -0.0107 H       
  70 H70           -4.6071    -0.2142     0.0070 H       
  71 H71            1.4610     2.2574    -0.9626 H       
@<TRIPOS>BOND
   1    1    2 ar
   2    1   40 1
   3    1    6 ar
   4    2    3 ar
   5    2   42 1
   6    3    4 ar
   7    3   36 ar
   8    4    5 ar
   9    4   39 ar
  10    5    6 ar
  11    5    7 1
  12    6   43 1
  13    7    9 ar
  14    7    8 ar
  15    8   13 1
  16    8   12 ar
  17    9   10 ar
  18    9   41 1
  19   10   11 ar
  20   10   14 ar
  21   11   12 ar
  22   11   17 ar
  23   12   44 1
  24   14   15 ar
  25   15   16 ar
  26   15   28 1
  27   16   17 ar
  28   17   18 1
  29   18   19 1
  30   18   23 1
  31   19   20 1
  32   19   45 1
  33   19   46 1
  34   20   21 1
  35   20   47 1
  36   20   48 1
  37   21   22 1
  38   21   24 am
  39   22   23 1
  40   22   49 1
  41   22   50 1
  42   23   51 1
  43   23   52 1
  44   24   25 2
  45   24   26 1
  46   26   27 2
  47   26   53 1
  48   27   54 1
  49   27   55 1
  50   28   29 1
  51   28   56 1
  52   29   30 1
  53   29   57 1
  54   29   58 1
  55   30   31 1
  56   30   59 1
  57   30   60 1
  58   31   32 2
  59   31   33 am
  60   33   34 1
  61   33   35 1
  62   34   61 1
  63   34   62 1
  64   34   63 1
  65   35   64 1
  66   35   65 1
  67   35   66 1
  68   36   37 ar
  69   36   67 1
  70   37   38 ar
  71   37   68 1
  72   38   39 ar
  73   38   69 1
  74   39   70 1
  75   40   71 1

#	End of record

