#	Name: ASD04882215
#	Creating user name:	WinNT
#	Creation time:	15. 06. 2019 20:54

#	Modifying user name:	WinNT
#	Modification time:	15. 06. 2019 20:54

#	Program:	/corina/corina34_cracker 3.40 0067  02.08.2006

@<TRIPOS>MOLECULE
ASD04882215
  73   77    0    0    0
SMALL
NO_CHARGES


@<TRIPOS>ATOM
   1 C1             0.1257     1.4913    -0.4332 C.2     
   2 C2             0.1460     0.0187    -0.4840 C.2     
   3 N3             1.1860    -0.6594     0.0405 N.am    
   4 C4             1.1515    -2.0590     0.0998 C.ar    
   5 C5             2.3301    -2.7947    -0.0510 C.ar    
   6 C6             2.2974    -4.1833     0.0077 C.ar    
   7 C7             1.1041    -4.8389     0.2146 C.ar    
   8 C8            -0.0783    -4.1092     0.3667 C.ar    
   9 C9            -0.0473    -2.7128     0.3133 C.ar    
  10 N10            3.5389    -2.1359    -0.2608 N.3     
  11 C11            3.5456    -1.4487    -1.5597 C.3     
  12 C12            4.6712    -3.0667    -0.1549 C.3     
  13 C13            5.9816    -2.2917    -0.3123 C.3     
  14 N14            5.9883    -1.6044    -1.6112 N.3     
  15 C15            4.8559    -0.6737    -1.7171 C.3     
  16 C16            7.2007    -0.9436    -1.8216 C.ar    
  17 C17            7.9952    -1.2771    -2.9110 C.ar    
  18 C18            7.6120     0.0526    -0.9450 C.ar    
  19 C19            8.8112     0.7038    -1.1560 C.ar    
  20 C20            9.6024     0.3656    -2.2388 C.ar    
  21 C21            9.1936    -0.6217    -3.1161 C.ar    
  22 C22           -1.3565    -4.8117     0.5883 C.2     
  23 N23           -1.3847    -6.1580     0.6442 N.am    
  24 O24           -2.3846    -4.1761     0.7205 O.2     
  25 O25           -0.7758    -0.5849    -0.9993 O.2     
  26 C26            1.0742     2.3110     0.1048 C.2     
  27 O27            0.6763     3.5772    -0.0535 O.3     
  28 C28           -0.5090     3.6319    -0.6807 C.2     
  29 C29           -0.9180     2.3843    -0.9574 C.2     
  30 C30            7.5504    -2.3531    -3.8678 C.3     
  31 C31           -2.6540    -6.8556     0.8642 C.3     
  32 C32           -2.4091    -8.3658     0.8848 C.3     
  33 C33           -3.7347    -9.0943     1.1146 C.3     
  34 N34           -3.5002   -10.5403     1.1343 N.pl3   
  35 C35           -1.2577     4.8935    -1.0255 C.3     
  36 C36           -3.2088   -11.2901     2.2190 C.2     
  37 C37           -3.5413   -11.3846     0.0577 C.2     
  38 C38           -3.2689   -12.6196     0.5204 C.2     
  39 N39           -3.0701   -12.5323     1.8439 N.2     
  40 H40            1.9584    -0.1786     0.3768 H       
  41 H41            3.2098    -4.7492    -0.1095 H       
  42 H42            1.0818    -5.9177     0.2590 H       
  43 H43           -0.9593    -2.1464     0.4305 H       
  44 H44            3.4592    -2.1833    -2.3603 H       
  45 H45            2.7053    -0.7561    -1.6090 H       
  46 H46            4.6516    -3.5538     0.8200 H       
  47 H47            4.5976    -3.8197    -0.9395 H       
  48 H48            6.0680    -1.5570     0.4883 H       
  49 H49            6.8219    -2.9842    -0.2630 H       
  50 H50            4.8755    -0.1866    -2.6920 H       
  51 H51            4.9295     0.0794    -0.9325 H       
  52 H52            6.9943     0.3177    -0.0997 H       
  53 H53            9.1315     1.4783    -0.4749 H       
  54 H54           10.5396     0.8770    -2.4019 H       
  55 H55            9.8138    -0.8835    -3.9607 H       
  56 H56           -0.5645    -6.6651     0.5387 H       
  57 H57            1.9906     1.9913     0.5784 H       
  58 H58           -1.8310     2.0949    -1.4565 H       
  59 H59            6.9593    -1.9067    -4.6674 H       
  60 H60            8.4250    -2.8449    -4.2935 H       
  61 H61            6.9451    -3.0861    -3.3344 H       
  62 H62           -3.0795    -6.5435     1.8180 H       
  63 H63           -3.3473    -6.6109     0.0595 H       
  64 H64           -1.9835    -8.6779    -0.0689 H       
  65 H65           -1.7157    -8.6105     1.6895 H       
  66 H66           -4.1602    -8.7822     2.0683 H       
  67 H67           -4.4280    -8.8496     0.3099 H       
  68 H68           -0.6874     5.7585    -0.6869 H       
  69 H69           -1.3968     4.9499    -2.1051 H       
  70 H70           -2.2305     4.8846    -0.5338 H       
  71 H71           -3.1071   -10.9226     3.2294 H       
  72 H72           -3.7518   -11.1125    -0.9661 H       
  73 H73           -3.2214   -13.5225    -0.0704 H       
@<TRIPOS>BOND
   1    1    2 1
   2    1   26 2
   3    1   29 1
   4    2    3 am
   5    2   25 2
   6    3    4 1
   7    3   40 1
   8    4    5 ar
   9    4    9 ar
  10    5    6 ar
  11    5   10 1
  12    6    7 ar
  13    6   41 1
  14    7    8 ar
  15    7   42 1
  16    8    9 ar
  17    8   22 1
  18    9   43 1
  19   10   11 1
  20   10   12 1
  21   11   15 1
  22   11   44 1
  23   11   45 1
  24   12   13 1
  25   12   46 1
  26   12   47 1
  27   13   14 1
  28   13   48 1
  29   13   49 1
  30   14   15 1
  31   14   16 1
  32   15   50 1
  33   15   51 1
  34   16   17 ar
  35   16   18 ar
  36   17   30 1
  37   17   21 ar
  38   18   19 ar
  39   18   52 1
  40   19   20 ar
  41   19   53 1
  42   20   21 ar
  43   20   54 1
  44   21   55 1
  45   22   23 am
  46   22   24 2
  47   23   31 1
  48   23   56 1
  49   26   27 1
  50   26   57 1
  51   27   28 1
  52   28   29 2
  53   28   35 1
  54   29   58 1
  55   30   59 1
  56   30   60 1
  57   30   61 1
  58   31   32 1
  59   31   62 1
  60   31   63 1
  61   32   33 1
  62   32   64 1
  63   32   65 1
  64   33   34 1
  65   33   66 1
  66   33   67 1
  67   34   36 1
  68   34   37 1
  69   35   68 1
  70   35   69 1
  71   35   70 1
  72   36   39 2
  73   36   71 1
  74   37   38 2
  75   37   72 1
  76   38   39 1
  77   38   73 1

#	End of record

