#	Name: ASD01912323
#	Creating user name:	WinNT
#	Creation time:	15. 06. 2019 19:59

#	Modifying user name:	WinNT
#	Modification time:	15. 06. 2019 19:59

#	Program:	/corina/corina34_cracker 3.40 0067  02.08.2006

@<TRIPOS>MOLECULE
ASD01912323
  52   55    0    0    0
SMALL
NO_CHARGES


@<TRIPOS>ATOM
   1 C1             0.0930     1.6296     1.4164 C.ar    
   2 C2             0.1127     0.2572     1.5890 C.ar    
   3 C3             1.3262    -0.4166     1.5631 C.ar    
   4 C4             2.4837     0.3138     1.3637 C.ar    
   5 C5             2.3918     1.6982     1.1962 C.ar    
   6 N6             1.2081     2.3043     1.2280 N.ar    
   7 C7             3.5802     2.4698     0.9888 C.1     
   8 C8             4.5545     3.1023     0.8188 C.1     
   9 C9             5.7429     3.8739     0.6114 C.2     
  10 N10            5.4040     7.5489    -0.9490 N.am    
  11 C11            6.7044     6.8717    -1.0337 C.3     
  12 C12            6.9044     6.0268     0.2308 C.3     
  13 C13            5.6606     5.1939     0.4511 C.2     
  14 C14            4.3212     5.8966     0.4855 C.3     
  15 C15            4.1859     6.7449    -0.7854 C.3     
  16 C16            5.3297     8.8930    -1.0150 C.2     
  17 C17            4.0105     9.5592    -1.0598 C.ar    
  18 C18            3.7749    10.6955    -0.2875 C.ar    
  19 C19            2.5315    11.3162    -0.3353 C.ar    
  20 C20            1.5278    10.7999    -1.1543 C.ar    
  21 C21            1.7655     9.6735    -1.9175 C.ar    
  22 C22            2.9994     9.0552    -1.8802 C.ar    
  23 O23            6.3473     9.5574    -1.0376 O.2     
  24 O24            2.5983    14.0772     1.8110 O.3     
  25 N25            3.1186    13.1129     1.2909 N.2     
  26 C26            2.2728    12.5263     0.4845 C.2     
  27 N27            1.1187    13.2287     0.5367 N.2     
  28 C28            1.3398    14.2065     1.3797 C.2     
  29 C29            0.3593    15.2760     1.7871 C.3     
  30 C30           -1.2238     2.3622     1.4380 C.3     
  31 H31           -0.8083    -0.2855     1.7431 H       
  32 H32            1.3657    -1.4877     1.6959 H       
  33 H33            3.4447    -0.1785     1.3383 H       
  34 H34            6.7059     3.3857     0.5848 H       
  35 H35            6.7235     6.2259    -1.9115 H       
  36 H36            7.4989     7.6143    -1.1064 H       
  37 H37            7.7663     5.3721     0.1022 H       
  38 H38            7.0645     6.6810     1.0878 H       
  39 H39            3.5202     5.1582     0.5209 H       
  40 H40            4.2668     6.5401     1.3637 H       
  41 H41            3.3225     7.4040    -0.6946 H       
  42 H42            4.0605     6.0917    -1.6490 H       
  43 H43            4.5548    11.0920     0.3457 H       
  44 H44            0.5620    11.2818    -1.1916 H       
  45 H45            0.9844     9.2775    -2.5495 H       
  46 H46            3.1813     8.1778    -2.4831 H       
  47 H47            0.8322    15.9490     2.5023 H       
  48 H48            0.0504    15.8400     0.9070 H       
  49 H49           -0.5137    14.8126     2.2466 H       
  50 H50           -1.4528     2.6678     2.4589 H       
  51 H51           -1.1595     3.2439     0.8005 H       
  52 H52           -2.0115     1.7046     1.0703 H       
@<TRIPOS>BOND
   1    1    2 ar
   2    1    6 ar
   3    1   30 1
   4    2    3 ar
   5    2   31 1
   6    3    4 ar
   7    3   32 1
   8    4    5 ar
   9    4   33 1
  10    5    6 ar
  11    5    7 1
  12    7    8 3
  13    8    9 1
  14    9   13 2
  15    9   34 1
  16   10   11 1
  17   10   15 1
  18   10   16 am
  19   11   12 1
  20   11   35 1
  21   11   36 1
  22   12   13 1
  23   12   37 1
  24   12   38 1
  25   13   14 1
  26   14   15 1
  27   14   39 1
  28   14   40 1
  29   15   41 1
  30   15   42 1
  31   16   17 1
  32   16   23 2
  33   17   18 ar
  34   17   22 ar
  35   18   19 ar
  36   18   43 1
  37   19   20 ar
  38   19   26 1
  39   20   21 ar
  40   20   44 1
  41   21   22 ar
  42   21   45 1
  43   22   46 1
  44   24   25 1
  45   24   28 1
  46   25   26 2
  47   26   27 1
  48   27   28 2
  49   28   29 1
  50   29   47 1
  51   29   48 1
  52   29   49 1
  53   30   50 1
  54   30   51 1
  55   30   52 1

#	End of record

