#	Name: ASD01890059
#	Creating user name:	WinNT
#	Creation time:	15. 06. 2019 19:50

#	Modifying user name:	WinNT
#	Modification time:	15. 06. 2019 19:50

#	Program:	/corina/corina34_cracker 3.40 0067  02.08.2006

@<TRIPOS>MOLECULE
ASD01890059
  57   58    0    0    0
SMALL
NO_CHARGES


@<TRIPOS>ATOM
   1 C1            -0.0184     1.5028     0.0103 C.2     
   2 C2             0.0021    -0.0041     0.0020 C.3     
   3 C3            -0.7132    -0.5094    -1.2244 C.2     
   4 O4             1.0197     2.1211     0.0037 O.2     
   5 O5            -1.1898     2.1580     0.0194 O.3     
   6 O6            -1.1905     0.2737    -2.0110 O.2     
   7 O7            -0.8199    -1.8295    -1.4429 O.3     
   8 C8             1.4513    -0.4944    -0.0145 C.3     
   9 C9             2.1775     0.0187     1.2307 C.3     
  10 C10            3.6341    -0.3599     1.1544 C.2     
  11 C11            1.4717    -2.0012    -0.0227 C.ar    
  12 C12            2.0697    -2.6786    -1.0689 C.ar    
  13 C13            2.0884    -4.0608    -1.0765 C.ar    
  14 C14            1.5095    -4.7656    -0.0378 C.ar    
  15 C15            0.9124    -4.0882     1.0089 C.ar    
  16 C16            0.8975    -2.7060     1.0186 C.ar    
  17 O17            4.0504    -0.9789     0.1984 O.2     
  18 C18            4.5510     0.0216     2.2395 C.ar    
  19 C19            5.9039    -0.3281     2.1721 C.ar    
  20 C20            6.7571     0.0331     3.1922 C.ar    
  21 C21            6.2779     0.7405     4.2831 C.ar    
  22 C22            4.9390     1.0899     4.3569 C.ar    
  23 C23            4.0754     0.7409     3.3412 C.ar    
  24 Cl24           7.3599     1.1907     5.5637 Cl      
  25 C25           -1.5220    -2.2441    -2.6444 C.3     
  26 C26           -1.5419    -3.7720    -2.7217 C.3     
  27 C27           -1.1335     3.6089     0.0270 C.3     
  28 C28           -0.3989     4.0974    -1.2231 C.3     
  29 C29           -2.5551     4.1744     0.0369 C.3     
  30 C30           -0.3871     4.0838     1.2754 C.3     
  31 H31           -0.4983    -0.3791     0.8948 H       
  32 H32            1.9516    -0.1193    -0.9073 H       
  33 H33            2.0863     1.1036     1.2833 H       
  34 H34            1.7324    -0.4269     2.1203 H       
  35 H35            2.5219    -2.1279    -1.8805 H       
  36 H36            2.5550    -4.5900    -1.8942 H       
  37 H37            1.5235    -5.8455    -0.0441 H       
  38 H38            0.4598    -4.6389     1.8203 H       
  39 H39            0.4342    -2.1767     1.8382 H       
  40 H40            6.2786    -0.8801     1.3228 H       
  41 H41            7.8018    -0.2362     3.1415 H       
  42 H42            4.5723     1.6410     5.2102 H       
  43 H43            3.0330     1.0177     3.3978 H       
  44 H44           -2.5447    -1.8684    -2.6155 H       
  45 H45           -1.0120    -1.8426    -3.5200 H       
  46 H46           -2.0519    -4.1735    -1.8461 H       
  47 H47           -2.0690    -4.0833    -3.6236 H       
  48 H48           -0.5192    -4.1478    -2.7506 H       
  49 H49           -0.9307     3.7591    -2.1124 H       
  50 H50           -0.3567     5.1865    -1.2173 H       
  51 H51            0.6139     3.6945    -1.2301 H       
  52 H52           -3.0784     3.8265     0.9275 H       
  53 H53           -2.5128     5.2636     0.0426 H       
  54 H54           -3.0869     3.8361    -0.8525 H       
  55 H55            0.6257     3.6809     1.2684 H       
  56 H56           -0.3448     5.1730     1.2811 H       
  57 H57           -0.9104     3.7358     2.1659 H       
@<TRIPOS>BOND
   1    1    2 1
   2    1    4 2
   3    1    5 1
   4    2    3 1
   5    2    8 1
   6    2   31 1
   7    3    6 2
   8    3    7 1
   9    5   27 1
  10    7   25 1
  11    8    9 1
  12    8   11 1
  13    8   32 1
  14    9   10 1
  15    9   33 1
  16    9   34 1
  17   10   17 2
  18   10   18 1
  19   11   12 ar
  20   11   16 ar
  21   12   13 ar
  22   12   35 1
  23   13   14 ar
  24   13   36 1
  25   14   15 ar
  26   14   37 1
  27   15   16 ar
  28   15   38 1
  29   16   39 1
  30   18   19 ar
  31   18   23 ar
  32   19   20 ar
  33   19   40 1
  34   20   21 ar
  35   20   41 1
  36   21   22 ar
  37   21   24 1
  38   22   23 ar
  39   22   42 1
  40   23   43 1
  41   25   26 1
  42   25   44 1
  43   25   45 1
  44   26   46 1
  45   26   47 1
  46   26   48 1
  47   27   28 1
  48   27   30 1
  49   27   29 1
  50   28   49 1
  51   28   50 1
  52   28   51 1
  53   29   52 1
  54   29   53 1
  55   29   54 1
  56   30   55 1
  57   30   56 1
  58   30   57 1

#	End of record

