#	Name: ASD03331576
#	Creating user name:	WinNT
#	Creation time:	15. 06. 2019 20:39

#	Modifying user name:	WinNT
#	Modification time:	15. 06. 2019 20:39

#	Program:	/corina/corina34_cracker 3.40 0067  02.08.2006

@<TRIPOS>MOLECULE
ASD03331576
  59   61    0    0    0
SMALL
NO_CHARGES


@<TRIPOS>ATOM
   1 C1            -0.1943     0.8806     1.2212 C.ar    
   2 C2            -0.1067    -0.5824     1.0213 C.2     
   3 N3            -1.0365    -1.4978     1.4222 N.pl3   
   4 C4            -0.5719    -2.7272     1.0731 C.2     
   5 C5             0.6195    -2.5425     0.4409 C.2     
   6 N6             0.8751    -1.2159     0.4239 N.2     
   7 C7             1.4743    -3.5994    -0.1278 C.2     
   8 O8             1.1319    -4.7641    -0.0538 O.2     
   9 N9             2.6357    -3.2755    -0.7301 N.am    
  10 C10            3.4856    -4.3263    -1.2955 C.3     
  11 C11            4.9136    -3.8469    -1.3417 C.2     
  12 C12           -2.3134    -1.2195     2.0868 C.3     
  13 C13           -2.7180    -2.4324     2.9293 C.3     
  14 C14           -3.4708    -3.4378     2.0606 C.3     
  15 O15           -2.6421    -3.9233     1.0111 O.3     
  16 C16           -1.2590    -4.0357     1.3637 C.3     
  17 C17            3.0127    -4.6574    -2.7125 C.3     
  18 C18            2.9846    -3.3789    -3.5525 C.3     
  19 C19            3.9731    -5.6645    -3.3484 C.3     
  20 C20            1.6075    -5.2598    -2.6535 C.3     
  21 O21            5.1533    -2.6728    -1.5287 O.2     
  22 C22            0.9563     1.6665     1.1520 C.ar    
  23 C23            0.8687     3.0322     1.3396 C.ar    
  24 C24           -0.3612     3.6212     1.5968 C.ar    
  25 C25           -1.5055     2.8434     1.6666 C.ar    
  26 C26           -1.4290     1.4798     1.4740 C.ar    
  27 N27            5.9242    -4.7228    -1.1752 N.am    
  28 C28            7.3072    -4.2431    -1.1165 C.3     
  29 F29           -0.4428     4.9572     1.7801 F       
  30 F30            1.9816     3.7952     1.2730 F       
  31 C31            5.6398    -6.1547    -1.0528 C.3     
  32 H32            2.9088    -2.3466    -0.7892 H       
  33 H33            3.4220    -5.2191    -0.6734 H       
  34 H34           -2.2057    -0.3476     2.7320 H       
  35 H35           -3.0798    -1.0256     1.3363 H       
  36 H36           -1.8244    -2.9041     3.3379 H       
  37 H37           -3.3610    -2.1072     3.7472 H       
  38 H38           -3.7929    -4.2754     2.6793 H       
  39 H39           -4.3474    -2.9536     1.6301 H       
  40 H40           -0.7961    -4.8291     0.7769 H       
  41 H41           -1.1707    -4.2661     2.4254 H       
  42 H42            3.9857    -2.9497    -3.5945 H       
  43 H43            2.6478    -3.6147    -4.5619 H       
  44 H44            2.3005    -2.6614    -3.0995 H       
  45 H45            3.9305    -6.6044    -2.7982 H       
  46 H46            3.6844    -5.8370    -4.3852 H       
  47 H47            4.9884    -5.2694    -3.3148 H       
  48 H48            0.9234    -4.5423    -2.2004 H       
  49 H49            1.2706    -5.4956    -3.6629 H       
  50 H50            1.6275    -6.1706    -2.0550 H       
  51 H51            1.9136     1.2079     0.9525 H       
  52 H52           -2.4604     3.3065     1.8674 H       
  53 H53           -2.3221     0.8751     1.5288 H       
  54 H54            7.5713    -4.0213    -0.0825 H       
  55 H55            7.9752    -5.0116    -1.5053 H       
  56 H56            7.4041    -3.3393    -1.7181 H       
  57 H57            4.5616    -6.3137    -1.0693 H       
  58 H58            6.0986    -6.6887    -1.8849 H       
  59 H59            6.0477    -6.5272    -0.1131 H       
@<TRIPOS>BOND
   1    1    2 1
   2    1   22 ar
   3    1   26 ar
   4    2    3 1
   5    2    6 2
   6    3    4 1
   7    3   12 1
   8    4    5 2
   9    4   16 1
  10    5    6 1
  11    5    7 1
  12    7    8 2
  13    7    9 am
  14    9   10 1
  15    9   32 1
  16   10   11 1
  17   10   17 1
  18   10   33 1
  19   11   21 2
  20   11   27 am
  21   12   13 1
  22   12   34 1
  23   12   35 1
  24   13   14 1
  25   13   36 1
  26   13   37 1
  27   14   15 1
  28   14   38 1
  29   14   39 1
  30   15   16 1
  31   16   40 1
  32   16   41 1
  33   17   18 1
  34   17   19 1
  35   17   20 1
  36   18   42 1
  37   18   43 1
  38   18   44 1
  39   19   45 1
  40   19   46 1
  41   19   47 1
  42   20   48 1
  43   20   49 1
  44   20   50 1
  45   22   23 ar
  46   22   51 1
  47   23   24 ar
  48   23   30 1
  49   24   25 ar
  50   24   29 1
  51   25   26 ar
  52   25   52 1
  53   26   53 1
  54   27   28 1
  55   27   31 1
  56   28   54 1
  57   28   55 1
  58   28   56 1
  59   31   57 1
  60   31   58 1
  61   31   59 1

#	End of record

