#	Name: ASD01814522
#	Creating user name:	WinNT
#	Creation time:	15. 06. 2019 19:32

#	Modifying user name:	WinNT
#	Modification time:	15. 06. 2019 19:32

#	Program:	/corina/corina34_cracker 3.40 0067  02.08.2006

@<TRIPOS>MOLECULE
ASD01814522
  47   50    0    0    0
SMALL
NO_CHARGES


@<TRIPOS>ATOM
   1 C1             0.3086     0.9422     0.2825 C.ar    
   2 C2             0.4142    -0.4361     0.3499 C.ar    
   3 C3             1.6569    -1.0393     0.3707 C.ar    
   4 C4             2.8027    -0.2607     0.3238 C.ar    
   5 C5             2.6962     1.1303     0.2558 C.ar    
   6 C6             1.4449     1.7265     0.2354 C.ar    
   7 N7             4.1630    -0.5603     0.3288 N.am    
   8 C8             4.8520     0.5947     0.2666 C.2     
   9 N9             3.9950     1.6321     0.2215 N.am    
  10 O10            6.0653     0.6870     0.2528 O.2     
  11 C11            4.3655     3.0476     0.1478 C.3     
  12 C12            5.2023     3.4220     1.3742 C.3     
  13 C13            5.6374     4.8849     1.2616 C.3     
  14 N14            6.4236     5.0701     0.0352 N.3     
  15 C15            5.6258     4.7620    -1.1585 C.3     
  16 C16            5.1904     3.2954    -1.1182 C.3     
  17 C17            6.9747     6.4299    -0.0365 C.3     
  18 C18            8.0597     6.4776    -1.0812 C.ar    
  19 C19            9.2987     5.9252    -0.8166 C.ar    
  20 C20           10.2942     5.9691    -1.7751 C.ar    
  21 C21           10.0502     6.5650    -2.9980 C.ar    
  22 C22            8.8105     7.1168    -3.2631 C.ar    
  23 C23            7.8140     7.0691    -2.3065 C.ar    
  24 C24            9.5647     5.2754     0.5168 C.3     
  25 H25           -0.6663     1.4064     0.2620 H       
  26 H26           -0.4786    -1.0426     0.3867 H       
  27 H27            1.7354    -2.1152     0.4237 H       
  28 H28            1.3586     2.8018     0.1825 H       
  29 H29            4.5482    -1.4496     0.3704 H       
  30 H30            3.4637     3.6593     0.1216 H       
  31 H31            4.6057     3.2882     2.2765 H       
  32 H32            6.0840     2.7828     1.4221 H       
  33 H33            4.7554     5.5245     1.2277 H       
  34 H34            6.2454     5.1506     2.1264 H       
  35 H35            4.7439     5.4021    -1.1811 H       
  36 H36            6.2254     4.9383    -2.0515 H       
  37 H37            6.0718     2.6542    -1.1095 H       
  38 H38            4.5852     3.0711    -1.9965 H       
  39 H39            6.1825     7.1294    -0.3032 H       
  40 H40            7.3911     6.7047     0.9326 H       
  41 H41           11.2625     5.5380    -1.5680 H       
  42 H42           10.8280     6.5999    -3.7465 H       
  43 H43            8.6200     7.5828    -4.2186 H       
  44 H44            6.8457     7.5002    -2.5136 H       
  45 H45            9.2173     4.2425     0.4935 H       
  46 H46           10.6349     5.2942     0.7231 H       
  47 H47            9.0344     5.8195     1.2984 H       
@<TRIPOS>BOND
   1    1    2 ar
   2    1    6 ar
   3    1   25 1
   4    2    3 ar
   5    2   26 1
   6    3    4 ar
   7    3   27 1
   8    4    5 ar
   9    4    7 1
  10    5    6 ar
  11    5    9 1
  12    6   28 1
  13    7    8 am
  14    7   29 1
  15    8    9 am
  16    8   10 2
  17    9   11 1
  18   11   12 1
  19   11   16 1
  20   11   30 1
  21   12   13 1
  22   12   31 1
  23   12   32 1
  24   13   14 1
  25   13   33 1
  26   13   34 1
  27   14   15 1
  28   14   17 1
  29   15   16 1
  30   15   35 1
  31   15   36 1
  32   16   37 1
  33   16   38 1
  34   17   18 1
  35   17   39 1
  36   17   40 1
  37   18   19 ar
  38   18   23 ar
  39   19   20 ar
  40   19   24 1
  41   20   21 ar
  42   20   41 1
  43   21   22 ar
  44   21   42 1
  45   22   23 ar
  46   22   43 1
  47   23   44 1
  48   24   45 1
  49   24   46 1
  50   24   47 1

#	End of record

