#	Name: ASD08070538
#	Creating user name:	WinNT
#	Creation time:	15. 06. 2019 21:15

#	Modifying user name:	WinNT
#	Modification time:	15. 06. 2019 21:15

#	Program:	/corina/corina34_cracker 3.40 0067  02.08.2006

@<TRIPOS>MOLECULE
ASD08070538
  42   42    0    0    0
SMALL
NO_CHARGES


@<TRIPOS>ATOM
   1 C1            -0.0168     1.3856     0.0097 C.ar    
   2 C2             0.0021    -0.0041     0.0020 C.ar    
   3 C3             1.2131    -0.6864    -0.0127 C.ar    
   4 C4             2.3993     0.0127    -0.0203 C.ar    
   5 C5             2.3846     1.4101    -0.0131 C.ar    
   6 C6             1.1653     2.0921     0.0022 C.ar    
   7 C7             3.6539     2.1635    -0.0211 C.2     
   8 O8             4.7140     1.5683    -0.0340 O.2     
   9 N9             3.6377     3.5111    -0.0142 N.am    
  10 C10            4.8974     4.2589    -0.0222 C.3     
  11 C11            4.6631     5.6465    -0.6227 C.3     
  12 C12            5.4058     4.4016     1.3893 C.2     
  13 O13            4.7800     3.9274     2.3077 O.2     
  14 C14            1.2278    -2.1933    -0.0200 C.3     
  15 C15            4.2669     5.5053    -2.0937 C.3     
  16 S16            3.9890     7.1504    -2.8056 S.3     
  17 O17           -1.1649    -0.6968     0.0094 O.3     
  18 C18           -2.3726     0.0670     0.0250 C.3     
  19 C19            3.5367     6.7808    -4.5230 C.3     
  20 O20            6.5538     5.0556     1.6262 O.3     
  21 C21            6.9827     5.1544     3.0099 C.3     
  22 H22           -0.9597     1.9121     0.0170 H       
  23 H23            3.3397    -0.5182    -0.0314 H       
  24 H24            1.1499     3.1720     0.0074 H       
  25 H25            2.7919     3.9859    -0.0039 H       
  26 H26            5.6340     3.7234    -0.6212 H       
  27 H27            3.8635     6.1479    -0.0775 H       
  28 H28            5.5781     6.2341    -0.5476 H       
  29 H29            1.2215    -2.5518    -1.0493 H       
  30 H30            2.1261    -2.5504     0.4837 H       
  31 H31            0.3463    -2.5677     0.5005 H       
  32 H32            5.0665     5.0038    -2.6389 H       
  33 H33            3.3519     4.9177    -2.1688 H       
  34 H34           -2.3965     0.6907     0.9186 H       
  35 H35           -2.4135     0.7002    -0.8612 H       
  36 H36           -3.2289    -0.6074     0.0296 H       
  37 H37            4.3546     6.2474    -5.0074 H       
  38 H38            2.6400     6.1613    -4.5373 H       
  39 H39            3.3438     7.7116    -5.0563 H       
  40 H40            7.9218     5.7054     3.0607 H       
  41 H41            6.2224     5.6780     3.5895 H       
  42 H42            7.1259     4.1539     3.4182 H       
@<TRIPOS>BOND
   1    1    2 ar
   2    1    6 ar
   3    1   22 1
   4    2    3 ar
   5    2   17 1
   6    3    4 ar
   7    3   14 1
   8    4    5 ar
   9    4   23 1
  10    5    6 ar
  11    5    7 1
  12    6   24 1
  13    7    8 2
  14    7    9 am
  15    9   10 1
  16    9   25 1
  17   10   11 1
  18   10   12 1
  19   10   26 1
  20   11   15 1
  21   11   27 1
  22   11   28 1
  23   12   13 2
  24   12   20 1
  25   14   29 1
  26   14   30 1
  27   14   31 1
  28   15   16 1
  29   15   32 1
  30   15   33 1
  31   16   19 1
  32   17   18 1
  33   18   34 1
  34   18   35 1
  35   18   36 1
  36   19   37 1
  37   19   38 1
  38   19   39 1
  39   20   21 1
  40   21   40 1
  41   21   41 1
  42   21   42 1

#	End of record

