#	Name: ASD04910103
#	Creating user name:	WinNT
#	Creation time:	15. 06. 2019 20:55

#	Modifying user name:	WinNT
#	Modification time:	15. 06. 2019 20:55

#	Program:	/corina/corina34_cracker 3.40 0067  02.08.2006

@<TRIPOS>MOLECULE
ASD04910103
  29   30    0    0    0
SMALL
NO_CHARGES


@<TRIPOS>ATOM
   1 C1            -0.1630     1.3800    -1.0021 C.2     
   2 C2            -0.1048    -0.0707    -0.7438 C.ar    
   3 C3             1.0825    -0.7748    -0.9642 C.ar    
   4 C4             1.1326    -2.1292    -0.7218 C.ar    
   5 C5             0.0045    -2.7965    -0.2585 C.ar    
   6 C6            -1.1784    -2.1002    -0.0384 C.ar    
   7 C7            -1.2352    -0.7446    -0.2723 C.ar    
   8 O8             0.8219     1.9650    -1.4071 O.2     
   9 O9            -1.3101     2.0559    -0.7943 O.3     
  10 O10            0.0581    -4.1314    -0.0208 O.3     
  11 C11            1.3340    -4.7622    -0.1474 C.3     
  12 C12            1.4546    -6.0732     0.6474 C.3     
  13 C13            2.2271    -6.6396    -0.5557 C.3     
  14 C14            1.4772    -5.6128    -1.4205 C.3     
  15 C15           -1.2943     3.4815    -1.0695 C.3     
  16 H16            1.9593    -0.2572    -1.3244 H       
  17 H17            2.0494    -2.6739    -0.8921 H       
  18 H18           -2.0526    -2.6225     0.3212 H       
  19 H19           -2.1531    -0.2034    -0.0962 H       
  20 H20            2.1641    -4.0748     0.0157 H       
  21 H21            2.0583    -5.9824     1.5504 H       
  22 H22            0.4987    -6.5663     0.8239 H       
  23 H23            3.3020    -6.4661    -0.5053 H       
  24 H24            1.9748    -7.6741    -0.7887 H       
  25 H25            0.5274    -5.9800    -1.8094 H       
  26 H26            2.0991    -5.1503    -2.1870 H       
  27 H27           -2.2779     3.9026    -0.8612 H       
  28 H28           -0.5505     3.9655    -0.4367 H       
  29 H29           -1.0429     3.6465    -2.1172 H       
@<TRIPOS>BOND
   1    1    2 1
   2    1    8 2
   3    1    9 1
   4    2    3 ar
   5    2    7 ar
   6    3    4 ar
   7    3   16 1
   8    4    5 ar
   9    4   17 1
  10    5    6 ar
  11    5   10 1
  12    6    7 ar
  13    6   18 1
  14    7   19 1
  15    9   15 1
  16   10   11 1
  17   11   12 1
  18   11   14 1
  19   11   20 1
  20   12   13 1
  21   12   21 1
  22   12   22 1
  23   13   14 1
  24   13   23 1
  25   13   24 1
  26   14   25 1
  27   14   26 1
  28   15   27 1
  29   15   28 1
  30   15   29 1

#	End of record

