#	Name: ASD00311196
#	Creating user name:	WinNT
#	Creation time:	15. 06. 2019 18:34

#	Modifying user name:	WinNT
#	Modification time:	15. 06. 2019 18:34

#	Program:	/corina/corina34_cracker 3.40 0067  02.08.2006

@<TRIPOS>MOLECULE
ASD00311196
  43   46    0    0    0
SMALL
NO_CHARGES


@<TRIPOS>ATOM
   1 C1            -0.0167     1.3777     0.0096 C.2     
   2 C2             0.0021    -0.0041     0.0020 C.2     
   3 C3             1.2585    -0.6766    -0.0131 C.2     
   4 C4             2.4315     0.0673    -0.0199 C.2     
   5 C5             2.3576     1.4750    -0.0117 C.2     
   6 N6             1.1650     2.0903     0.0022 N.am    
   7 C7            -1.3434    -0.5753     0.0118 C.2     
   8 C8            -2.3231     0.3266     0.0260 C.2     
   9 S9            -1.6792     1.9565     0.0358 S.3     
  10 O10            3.3825     2.1371    -0.0175 O.2     
  11 C11            3.7475    -0.6122    -0.0352 C.ar    
  12 C12            4.5937    -0.4749    -1.1354 C.ar    
  13 C13            5.8187    -1.1099    -1.1435 C.ar    
  14 C14            6.2082    -1.8815    -0.0633 C.ar    
  15 C15            5.3730    -2.0219     1.0307 C.ar    
  16 C16            4.1481    -1.3872     1.0531 C.ar    
  17 O17            1.3084    -2.0292    -0.0204 O.3     
  18 C18           -1.5961    -2.0354     0.0064 C.ar    
  19 C19           -1.7275    -2.7214    -1.2059 C.ar    
  20 C20           -1.9629    -4.0857    -1.2016 C.ar    
  21 C21           -2.0682    -4.7671    -0.0026 C.ar    
  22 C22           -1.9389    -4.0921     1.1977 C.ar    
  23 C23           -1.6982    -2.7325     1.2083 C.ar    
  24 O24           -1.6247    -2.0509    -2.3835 O.3     
  25 C25           -2.3256    -6.2520    -0.0040 C.3     
  26 C26           -0.9915    -7.0008    -0.0196 C.3     
  27 Cl27          -4.0152    -0.0612     0.0400 Cl      
  28 H28            1.1329     3.0598     0.0077 H       
  29 H29            4.2906     0.1270    -1.9794 H       
  30 H30            6.4747    -1.0046    -1.9950 H       
  31 H31            7.1679    -2.3766    -0.0742 H       
  32 H32            5.6823    -2.6262     1.8707 H       
  33 H33            3.4990    -1.4936     1.9097 H       
  34 H34            2.2056    -2.3896    -0.0306 H       
  35 H35           -2.0649    -4.6184    -2.1355 H       
  36 H36           -2.0227    -4.6310     2.1299 H       
  37 H37           -1.5933    -2.2093     2.1473 H       
  38 H38           -0.7245    -2.0068    -2.7338 H       
  39 H39           -2.8848    -6.5246     0.8910 H       
  40 H40           -2.9030    -6.5198    -0.8889 H       
  41 H41           -0.4141    -6.7329     0.8652 H       
  42 H42           -1.1776    -8.0748    -0.0206 H       
  43 H43           -0.4322    -6.7281    -0.9146 H       
@<TRIPOS>BOND
   1    1    2 2
   2    1    6 1
   3    1    9 1
   4    2    3 1
   5    2    7 1
   6    3    4 2
   7    3   17 1
   8    4    5 1
   9    4   11 1
  10    5    6 am
  11    5   10 2
  12    6   28 1
  13    7    8 2
  14    7   18 1
  15    8    9 1
  16    8   27 1
  17   11   12 ar
  18   11   16 ar
  19   12   13 ar
  20   12   29 1
  21   13   14 ar
  22   13   30 1
  23   14   15 ar
  24   14   31 1
  25   15   16 ar
  26   15   32 1
  27   16   33 1
  28   17   34 1
  29   18   19 ar
  30   18   23 ar
  31   19   20 ar
  32   19   24 1
  33   20   21 ar
  34   20   35 1
  35   21   22 ar
  36   21   25 1
  37   22   23 ar
  38   22   36 1
  39   23   37 1
  40   24   38 1
  41   25   26 1
  42   25   39 1
  43   25   40 1
  44   26   41 1
  45   26   42 1
  46   26   43 1

#	End of record

