#	Name: ASD01200192
#	Creating user name:	WinNT
#	Creation time:	15. 06. 2019 19:08

#	Modifying user name:	WinNT
#	Modification time:	15. 06. 2019 19:08

#	Program:	/corina/corina34_cracker 3.40 0067  02.08.2006

@<TRIPOS>MOLECULE
ASD01200192
  51   53    0    0    0
SMALL
NO_CHARGES


@<TRIPOS>ATOM
   1 C1             0.0279     1.4351     0.2929 C.2     
   2 C2             0.0402    -0.0647     0.1466 C.3     
   3 O3             1.0731     2.0482     0.3424 O.2     
   4 N4            -1.1448     2.0957     0.3631 N.am    
   5 C5            -1.1579     3.4690     0.6028 C.ar    
   6 C6            -2.3617     4.1635     0.5635 C.ar    
   7 C7            -2.3606     5.5262     0.8033 C.ar    
   8 C8            -1.1503     6.1499     1.0751 C.ar    
   9 C9             0.0075     5.3979     1.0981 C.ar    
  10 N10           -0.0251     4.0986     0.8708 N.ar    
  11 O11            1.3913    -0.5265     0.0884 O.3     
  12 N12            1.2694    -2.4846    -1.2527 N.am    
  13 C13            1.5197    -1.9497     0.0921 C.3     
  14 C14            2.9373    -2.3442     0.4355 C.2     
  15 C15            3.4153    -3.0210    -0.6039 C.2     
  16 C16            2.3921    -3.1122    -1.6504 C.2     
  17 O17            2.5363    -3.6726    -2.7200 O.2     
  18 C18            4.8008    -3.6071    -0.6933 C.3     
  19 C19            3.6705    -2.0296     1.7139 C.3     
  20 C20            0.0257    -2.3631    -2.0174 C.3     
  21 C21           -0.9309    -3.4488    -1.5965 C.ar    
  22 C22           -1.7462    -3.2616    -0.4955 C.ar    
  23 C23           -2.6239    -4.2553    -0.1076 C.ar    
  24 C24           -2.6870    -5.4418    -0.8237 C.ar    
  25 C25           -1.8680    -5.6272    -1.9280 C.ar    
  26 C26           -0.9959    -4.6281    -2.3152 C.ar    
  27 O27           -3.5494    -6.4210    -0.4439 O.3     
  28 C28           -3.5605    -7.6157    -1.2278 C.3     
  29 H29           -0.4619    -0.5173     1.0017 H       
  30 H30           -0.4793    -0.3447    -0.7698 H       
  31 H31           -1.9796     1.6157     0.2468 H       
  32 H32           -3.2852     3.6465     0.3485 H       
  33 H33           -3.2802     6.0920     0.7792 H       
  34 H34           -1.1147     7.2122     1.2663 H       
  35 H35            0.9513     5.8787     1.3087 H       
  36 H36            0.8228    -2.3878     0.8067 H       
  37 H37            4.7908    -4.6246    -0.3025 H       
  38 H38            5.1230    -3.6208    -1.7345 H       
  39 H39            5.4907    -2.9997    -0.1074 H       
  40 H40            3.5036    -2.8298     2.4350 H       
  41 H41            4.7375    -1.9421     1.5088 H       
  42 H42            3.3009    -1.0892     2.1227 H       
  43 H43           -0.4241    -1.3886    -1.8271 H       
  44 H44            0.2421    -2.4619    -3.0811 H       
  45 H45           -1.6964    -2.3379     0.0619 H       
  46 H46           -3.2602    -4.1087     0.7527 H       
  47 H47           -1.9152    -6.5500    -2.4871 H       
  48 H48           -0.3615    -4.7700    -3.1776 H       
  49 H49           -4.2911    -8.3128    -0.8175 H       
  50 H50           -3.8276    -7.3730    -2.2563 H       
  51 H51           -2.5711    -8.0727    -1.2077 H       
@<TRIPOS>BOND
   1    1    2 1
   2    1    3 2
   3    1    4 am
   4    2   11 1
   5    2   29 1
   6    2   30 1
   7    4    5 1
   8    4   31 1
   9    5    6 ar
  10    5   10 ar
  11    6    7 ar
  12    6   32 1
  13    7    8 ar
  14    7   33 1
  15    8    9 ar
  16    8   34 1
  17    9   10 ar
  18    9   35 1
  19   11   13 1
  20   12   13 1
  21   12   16 am
  22   12   20 1
  23   13   14 1
  24   13   36 1
  25   14   15 2
  26   14   19 1
  27   15   16 1
  28   15   18 1
  29   16   17 2
  30   18   37 1
  31   18   38 1
  32   18   39 1
  33   19   40 1
  34   19   41 1
  35   19   42 1
  36   20   21 1
  37   20   43 1
  38   20   44 1
  39   21   22 ar
  40   21   26 ar
  41   22   23 ar
  42   22   45 1
  43   23   24 ar
  44   23   46 1
  45   24   25 ar
  46   24   27 1
  47   25   26 ar
  48   25   47 1
  49   26   48 1
  50   27   28 1
  51   28   49 1
  52   28   50 1
  53   28   51 1

#	End of record

