#	Name: ASD01140674
#	Creating user name:	WinNT
#	Creation time:	15. 06. 2019 19:01

#	Modifying user name:	WinNT
#	Modification time:	15. 06. 2019 19:01

#	Program:	/corina/corina34_cracker 3.40 0067  02.08.2006

@<TRIPOS>MOLECULE
ASD01140674
  35   38    0    0    0
SMALL
NO_CHARGES


@<TRIPOS>ATOM
   1 O1             0.2685     0.9758    -0.0389 O.3     
   2 C2             0.1775    -0.3674    -0.0900 C.2     
   3 O3             1.1850    -1.0422    -0.1623 O.2     
   4 C4            -1.1476    -1.0196    -0.0581 C.2     
   5 N5            -2.3378    -0.3926     0.0144 N.2     
   6 C6            -3.2584    -1.3187     0.0278 C.2     
   7 C7            -4.7467    -1.1076     0.1537 C.3     
   8 N8            -5.1990    -1.7977     1.3659 N.2     
   9 C9            -5.0711    -3.0708     1.5096 C.2     
  10 C10           -5.5953    -3.6433     2.7703 C.ar    
  11 C11           -6.9633    -3.6083     3.0400 C.ar    
  12 C12           -7.4459    -4.1433     4.2165 C.ar    
  13 C13           -6.5769    -4.7139     5.1297 C.ar    
  14 C14           -5.2192    -4.7530     4.8707 C.ar    
  15 C15           -4.7224    -4.2262     3.6929 C.ar    
  16 F16           -3.3966    -4.2698     3.4372 F       
  17 C17           -4.4660    -4.0203     0.5678 C.ar    
  18 C18           -5.1044    -5.2552     0.3785 C.ar    
  19 C19           -4.5673    -6.1971    -0.4710 C.ar    
  20 Cl20          -5.3734    -7.7179    -0.6972 Cl      
  21 C21           -3.3862    -5.9346    -1.1458 C.ar    
  22 C22           -2.7523    -4.7207    -0.9789 C.ar    
  23 C23           -3.2919    -3.7535    -0.1367 C.ar    
  24 N24           -2.6474    -2.5135    -0.0642 N.pl3   
  25 N25           -1.3738    -2.3159    -0.1013 N.2     
  26 H26            1.1570     1.3568    -0.0626 H       
  27 H27           -4.9626    -0.0422     0.2336 H       
  28 H28           -5.2531    -1.5228    -0.7177 H       
  29 H29           -7.6436    -3.1629     2.3292 H       
  30 H30           -8.5052    -4.1163     4.4255 H       
  31 H31           -6.9608    -5.1304     6.0492 H       
  32 H32           -4.5462    -5.1997     5.5876 H       
  33 H33           -6.0238    -5.4691     0.9032 H       
  34 H34           -2.9617    -6.6800    -1.8020 H       
  35 H35           -1.8308    -4.5199    -1.5051 H       
@<TRIPOS>BOND
   1    1    2 1
   2    1   26 1
   3    2    3 2
   4    2    4 1
   5    4   25 2
   6    4    5 1
   7    5    6 2
   8    6   24 1
   9    6    7 1
  10    7    8 1
  11    7   27 1
  12    7   28 1
  13    8    9 2
  14    9   10 1
  15    9   17 1
  16   10   15 ar
  17   10   11 ar
  18   11   12 ar
  19   11   29 1
  20   12   13 ar
  21   12   30 1
  22   13   14 ar
  23   13   31 1
  24   14   15 ar
  25   14   32 1
  26   15   16 1
  27   17   23 ar
  28   17   18 ar
  29   18   19 ar
  30   18   33 1
  31   19   20 1
  32   19   21 ar
  33   21   22 ar
  34   21   34 1
  35   22   23 ar
  36   22   35 1
  37   23   24 1
  38   24   25 1

#	End of record

