#	Name: ASD03430688
#	Creating user name:	WinNT
#	Creation time:	15. 06. 2019 20:41

#	Modifying user name:	WinNT
#	Modification time:	15. 06. 2019 20:41

#	Program:	/corina/corina34_cracker 3.40 0067  02.08.2006

@<TRIPOS>MOLECULE
ASD03430688
  61   67    0    0    0
SMALL
NO_CHARGES


@<TRIPOS>ATOM
   1 C1             2.6706     0.3872     0.0049 C.ar    
   2 C2             2.1010    -0.8739    -0.0344 C.ar    
   3 C3             2.8942    -1.9815    -0.2526 C.ar    
   4 C4             4.2692    -1.8487    -0.4237 C.ar    
   5 C5             4.8376    -0.5779    -0.3882 C.ar    
   6 C6             4.0454     0.5338    -0.1764 C.ar    
   7 O7             4.8649    -3.0635    -0.5956 O.3     
   8 C8             2.5866    -3.4500    -0.3727 C.3     
   9 C9             3.8698    -4.0303    -0.9831 C.3     
  10 C10            0.9941    -4.6313     0.8062 C.ar    
  11 C11            2.2632    -4.0758     0.9515 C.ar    
  12 C12            1.3888    -3.7119    -1.2399 C.2     
  13 N13            0.5113    -4.4019    -0.4845 N.am    
  14 O14            1.2400    -3.3691    -2.3938 O.2     
  15 C15            2.9394    -4.1766     2.1464 C.ar    
  16 C16            2.3605    -4.8352     3.2170 C.ar    
  17 C17            1.1016    -5.3912     3.0838 C.ar    
  18 C18            0.4196    -5.2925     1.8885 C.ar    
  19 C19           -0.7964    -4.8586    -0.9615 C.3     
  20 N20            1.8799     1.5269     0.2200 N.am    
  21 C21            2.3958     2.7430    -0.0638 C.2     
  22 C22            3.7867     2.8487    -0.6356 C.3     
  23 O23            4.5929     1.7788    -0.1438 O.3     
  24 C24            0.5174     1.3998     0.7430 C.3     
  25 O25            1.7428     3.7448     0.1401 O.2     
  26 C26           -1.8845    -4.1925    -0.1594 C.ar    
  27 C27           -3.0269    -4.8959     0.1736 C.ar    
  28 C28           -4.0250    -4.2849     0.9094 C.ar    
  29 C29           -3.8804    -2.9706     1.3126 C.ar    
  30 C30           -2.7376    -2.2675     0.9804 C.ar    
  31 C31           -1.7376    -2.8798     0.2483 C.ar    
  32 C32           -0.9537    -4.4996    -2.4167 C.ar    
  33 C33           -0.9109    -5.4889    -3.3812 C.ar    
  34 C34           -1.0551    -5.1596    -4.7160 C.ar    
  35 C35           -1.2426    -3.8410    -5.0862 C.ar    
  36 C36           -1.2863    -2.8518    -4.1216 C.ar    
  37 C37           -1.1464    -3.1816    -2.7865 C.ar    
  38 H38            1.0366    -0.9907     0.1059 H       
  39 H39            5.9022    -0.4610    -0.5270 H       
  40 H40            3.7897    -4.0895    -2.0685 H       
  41 H41            4.0935    -5.0081    -0.5565 H       
  42 H42            3.9227    -3.7417     2.2482 H       
  43 H43            2.8906    -4.9145     4.1546 H       
  44 H44            0.6501    -5.9055     3.9192 H       
  45 H45           -0.5633    -5.7297     1.7920 H       
  46 H46           -0.8687    -5.9399    -0.8442 H       
  47 H47            3.7374     2.7907    -1.7229 H       
  48 H48            4.2277     3.8017    -0.3433 H       
  49 H49            0.5412     1.4383     1.8321 H       
  50 H50           -0.0952     2.2179     0.3639 H       
  51 H51            0.0923     0.4488     0.4223 H       
  52 H52           -3.1399    -5.9228    -0.1414 H       
  53 H53           -4.9179    -4.8343     1.1689 H       
  54 H54           -4.6605    -2.4930     1.8868 H       
  55 H55           -2.6248    -1.2405     1.2951 H       
  56 H56           -0.8431    -2.3317    -0.0080 H       
  57 H57           -0.7645    -6.5191    -3.0920 H       
  58 H58           -1.0210    -5.9324    -5.4696 H       
  59 H59           -1.3545    -3.5836    -6.1291 H       
  60 H60           -1.4324    -1.8215    -4.4109 H       
  61 H61           -1.1842    -2.4093    -2.0326 H       
@<TRIPOS>BOND
   1    1    2 ar
   2    1    6 ar
   3    1   20 1
   4    2    3 ar
   5    2   38 1
   6    3    4 ar
   7    3    8 1
   8    4    5 ar
   9    4    7 1
  10    5    6 ar
  11    5   39 1
  12    6   23 1
  13    7    9 1
  14    8    9 1
  15    8   11 1
  16    8   12 1
  17    9   40 1
  18    9   41 1
  19   10   11 ar
  20   10   13 1
  21   10   18 ar
  22   11   15 ar
  23   12   13 am
  24   12   14 2
  25   13   19 1
  26   15   16 ar
  27   15   42 1
  28   16   17 ar
  29   16   43 1
  30   17   18 ar
  31   17   44 1
  32   18   45 1
  33   19   26 1
  34   19   32 1
  35   19   46 1
  36   20   21 am
  37   20   24 1
  38   21   22 1
  39   21   25 2
  40   22   23 1
  41   22   47 1
  42   22   48 1
  43   24   49 1
  44   24   50 1
  45   24   51 1
  46   26   27 ar
  47   26   31 ar
  48   27   28 ar
  49   27   52 1
  50   28   29 ar
  51   28   53 1
  52   29   30 ar
  53   29   54 1
  54   30   31 ar
  55   30   55 1
  56   31   56 1
  57   32   33 ar
  58   32   37 ar
  59   33   34 ar
  60   33   57 1
  61   34   35 ar
  62   34   58 1
  63   35   36 ar
  64   35   59 1
  65   36   37 ar
  66   36   60 1
  67   37   61 1

#	End of record

