#	Name: ASD01903134
#	Creating user name:	WinNT
#	Creation time:	15. 06. 2019 19:54

#	Modifying user name:	WinNT
#	Modification time:	15. 06. 2019 19:54

#	Program:	/corina/corina34_cracker 3.40 0067  02.08.2006

@<TRIPOS>MOLECULE
ASD01903134
  33   34    0    0    0
SMALL
NO_CHARGES


@<TRIPOS>ATOM
   1 C1             1.9394    -2.2553     1.4605 C.ar    
   2 C2             0.9318    -1.7328     0.6652 C.ar    
   3 C3             1.1787    -0.5919    -0.0820 C.ar    
   4 N4             2.3532    -0.0016    -0.0454 N.ar    
   5 C5             3.3448    -0.4696     0.7031 C.ar    
   6 C6             3.1673    -1.6122     1.4796 C.ar    
   7 C7             4.6508     0.2292     0.7124 C.2     
   8 N8             4.8287     1.3353    -0.0369 N.am    
   9 O9             5.5620    -0.1949     1.3956 O.2     
  10 C10            6.0274     2.0504     0.0458 C.ar    
  11 C11            7.2278     1.3775     0.2337 C.ar    
  12 C12            8.4100     2.0868     0.3150 C.ar    
  13 C13            8.3995     3.4656     0.2094 C.ar    
  14 C14            7.2060     4.1387     0.0227 C.ar    
  15 C15            6.0210     3.4349    -0.0656 C.ar    
  16 S16            9.9100     4.3668     0.3136 S.o2    
  17 O17            9.5647     5.6826     0.7241 O.2     
  18 O18           10.8201     3.5430     1.0294 O.2     
  19 N19           10.5091     4.4989    -1.2245 N.am    
  20 C20            9.7754     5.2678    -2.2329 C.3     
  21 H21            1.7704    -3.1407     2.0553 H       
  22 H22           -0.0362    -2.2102     0.6278 H       
  23 H23            0.3959    -0.1822    -0.7031 H       
  24 H24            3.9750    -1.9920     2.0877 H       
  25 H25            4.1251     1.6352    -0.6335 H       
  26 H26            7.2367     0.3007     0.3166 H       
  27 H27            9.3437     1.5642     0.4615 H       
  28 H28            7.2012     5.2156    -0.0590 H       
  29 H29            5.0892     3.9612    -0.2114 H       
  30 H30           11.3458     4.0672    -1.4579 H       
  31 H31            8.7857     4.8329    -2.3722 H       
  32 H32            9.6748     6.3008    -1.8999 H       
  33 H33           10.3199     5.2417    -3.1768 H       
@<TRIPOS>BOND
   1    1    2 ar
   2    1    6 ar
   3    1   21 1
   4    2    3 ar
   5    2   22 1
   6    3    4 ar
   7    3   23 1
   8    4    5 ar
   9    5    6 ar
  10    5    7 1
  11    6   24 1
  12    7    8 am
  13    7    9 2
  14    8   10 1
  15    8   25 1
  16   10   11 ar
  17   10   15 ar
  18   11   12 ar
  19   11   26 1
  20   12   13 ar
  21   12   27 1
  22   13   14 ar
  23   13   16 1
  24   14   15 ar
  25   14   28 1
  26   15   29 1
  27   16   17 2
  28   16   18 2
  29   16   19 am
  30   19   20 1
  31   19   30 1
  32   20   31 1
  33   20   32 1
  34   20   33 1

#	End of record

