#	Name: ASD01880099
#	Creating user name:	WinNT
#	Creation time:	15. 06. 2019 19:40

#	Modifying user name:	WinNT
#	Modification time:	15. 06. 2019 19:40

#	Program:	/corina/corina34_cracker 3.40 0067  02.08.2006

@<TRIPOS>MOLECULE
ASD01880099
  64   68    0    0    0
SMALL
NO_CHARGES


@<TRIPOS>ATOM
   1 C1            -0.0166     1.3745     0.0096 C.ar    
   2 C2             0.0021    -0.0041     0.0020 C.ar    
   3 C3             1.2076    -0.6854    -0.0131 C.ar    
   4 C4             2.4126     0.0215    -0.0208 C.ar    
   5 C5             2.4000     1.4112    -0.0132 C.ar    
   6 C6             1.1828     2.0923     0.0020 C.ar    
   7 C7             3.7035    -0.7101    -0.0366 C.ar    
   8 C8             4.6850    -0.3762    -0.9672 C.ar    
   9 C9             5.8840    -1.0601    -0.9774 C.ar    
  10 C10            6.1117    -2.0753    -0.0663 C.ar    
  11 C11            5.1406    -2.4110     0.8601 C.ar    
  12 C12            3.9407    -1.7298     0.8832 C.ar    
  13 C13            5.3960    -3.5184     1.8497 C.3     
  14 O14            5.9940    -2.9753     3.0285 O.3     
  15 C15            6.2901    -3.8458     4.0259 C.ar    
  16 C16            6.0102    -5.1985     3.8728 C.ar    
  17 C17            6.3098    -6.0866     4.8848 C.ar    
  18 C18            6.8963    -5.6247     6.0652 C.ar    
  19 C19            7.1747    -4.2541     6.2070 C.ar    
  20 C20            6.8789    -3.3847     5.1985 C.ar    
  21 C21            6.1106    -7.5808     4.9699 C.3     
  22 C22            6.6414    -8.0073     6.3455 C.3     
  23 C23            7.1265    -6.7359     6.9985 C.2     
  24 C24            5.5195    -8.6347     7.1753 C.3     
  25 C25            4.9601    -9.8736     6.4541 C.3     
  26 C26            5.1943   -11.0740     7.3943 C.3     
  27 C27            5.2995   -10.4384     8.8029 C.3     
  28 C28            6.0742    -9.1256     8.5285 C.3     
  29 O29            7.6204    -6.6469     8.1028 O.2     
  30 C30            7.1816    -1.9172     5.3596 C.3     
  31 C31            7.8068    -3.7441     7.4764 C.3     
  32 F32            1.2184    -2.0364    -0.0200 F       
  33 C33            1.1613     3.5683     0.0096 C.2     
  34 O34            2.2044     4.1911     0.0027 O.2     
  35 O35           -0.0150     4.2249     0.0244 O.3     
  36 H36           -0.9597     1.9007     0.0169 H       
  37 H37           -0.9270    -0.5547     0.0083 H       
  38 H38            3.3292     1.9618    -0.0188 H       
  39 H39            4.5080     0.4160    -1.6796 H       
  40 H40            6.6456    -0.8021    -1.6984 H       
  41 H41            7.0510    -2.6083    -0.0782 H       
  42 H42            3.1832    -1.9926     1.6068 H       
  43 H43            4.4525    -3.9986     2.1091 H       
  44 H44            6.0681    -4.2535     1.4070 H       
  45 H45            5.5567    -5.5550     2.9598 H       
  46 H46            5.0511    -7.8227     4.8858 H       
  47 H47            6.6730    -8.0792     4.1804 H       
  48 H48            7.4658    -8.7110     6.2305 H       
  49 H49            4.7245    -7.9071     7.3386 H       
  50 H50            3.8935    -9.7475     6.2682 H       
  51 H51            5.4879   -10.0278     5.5130 H       
  52 H52            4.3518   -11.7641     7.3491 H       
  53 H53            6.1217   -11.5853     7.1363 H       
  54 H54            4.3092   -10.2257     9.2056 H       
  55 H55            5.8613   -11.0847     9.4773 H       
  56 H56            7.1437    -9.3222     8.4537 H       
  57 H57            5.8737    -8.3937     9.3110 H       
  58 H58            8.1886    -1.7119     4.9965 H       
  59 H59            6.4623    -1.3327     4.7859 H       
  60 H60            7.1127    -1.6455     6.4130 H       
  61 H61            8.8920    -3.7686     7.3771 H       
  62 H62            7.4817    -2.7197     7.6580 H       
  63 H63            7.5040    -4.3750     8.3120 H       
  64 H64            0.0215     5.1912     0.0289 H       
@<TRIPOS>BOND
   1    1    2 ar
   2    1    6 ar
   3    1   36 1
   4    2    3 ar
   5    2   37 1
   6    3    4 ar
   7    3   32 1
   8    4    5 ar
   9    4    7 1
  10    5    6 ar
  11    5   38 1
  12    6   33 1
  13    7    8 ar
  14    7   12 ar
  15    8    9 ar
  16    8   39 1
  17    9   10 ar
  18    9   40 1
  19   10   11 ar
  20   10   41 1
  21   11   12 ar
  22   11   13 1
  23   12   42 1
  24   13   14 1
  25   13   43 1
  26   13   44 1
  27   14   15 1
  28   15   16 ar
  29   15   20 ar
  30   16   17 ar
  31   16   45 1
  32   17   18 ar
  33   17   21 1
  34   18   19 ar
  35   18   23 1
  36   19   20 ar
  37   19   31 1
  38   20   30 1
  39   21   22 1
  40   21   46 1
  41   21   47 1
  42   22   23 1
  43   22   24 1
  44   22   48 1
  45   23   29 2
  46   24   25 1
  47   24   28 1
  48   24   49 1
  49   25   26 1
  50   25   50 1
  51   25   51 1
  52   26   27 1
  53   26   52 1
  54   26   53 1
  55   27   28 1
  56   27   54 1
  57   27   55 1
  58   28   56 1
  59   28   57 1
  60   30   58 1
  61   30   59 1
  62   30   60 1
  63   31   61 1
  64   31   62 1
  65   31   63 1
  66   33   34 2
  67   33   35 1
  68   35   64 1

#	End of record

