#	Name: ASD04230048
#	Creating user name:	WinNT
#	Creation time:	15. 06. 2019 20:48

#	Modifying user name:	WinNT
#	Modification time:	15. 06. 2019 20:48

#	Program:	/corina/corina34_cracker 3.40 0067  02.08.2006

@<TRIPOS>MOLECULE
ASD04230048
  31   32    0    0    0
SMALL
NO_CHARGES


@<TRIPOS>ATOM
   1 C1            -0.1658     1.5019    -0.5498 C.2     
   2 C2            -0.1411    -0.0048    -0.5455 C.3     
   3 O3             0.7377     2.1218    -1.0699 O.2     
   4 N4            -1.1946     2.1607     0.0195 N.am    
   5 C5            -2.3467     4.2934     0.0193 C.ar    
   6 C6            -1.1623     3.5541     0.1194 C.ar    
   7 C7             0.0433     4.2102     0.3186 C.ar    
   8 C8             0.0730     5.5882     0.4176 C.ar    
   9 C9            -1.0965     6.3210     0.3190 C.ar    
  10 C10           -2.3038     5.6815     0.1207 C.ar    
  11 C11           -3.6403     3.6019    -0.1998 C.ar    
  12 C12           -4.7337     3.8925     0.6125 C.ar    
  13 C13           -5.9406     3.2428     0.4019 C.ar    
  14 C14           -6.0558     2.3047    -0.6176 C.ar    
  15 C15           -4.9702     2.0169    -1.4225 C.ar    
  16 C16           -3.7667     2.6637    -1.2230 C.ar    
  17 N17           -7.0400     3.5304     1.2142 N.pl3   
  18 H18            0.7585    -0.3550    -1.0516 H       
  19 H19           -0.1429    -0.3653     0.4832 H       
  20 H20           -1.0212    -0.3841    -1.0649 H       
  21 H21           -1.9574     1.6676     0.3598 H       
  22 H22            0.9594     3.6437     0.3968 H       
  23 H23            1.0136     6.0956     0.5731 H       
  24 H24           -1.0648     7.3976     0.3978 H       
  25 H25           -3.2143     6.2573     0.0446 H       
  26 H26           -4.6419     4.6214     1.4041 H       
  27 H27           -6.9962     1.7993    -0.7806 H       
  28 H28           -5.0647     1.2871    -2.2130 H       
  29 H29           -2.9218     2.4396    -1.8573 H       
  30 H30           -6.9594     4.1847     1.9257 H       
  31 H31           -7.8841     3.0758     1.0668 H       
@<TRIPOS>BOND
   1    1    2 1
   2    1    3 2
   3    1    4 am
   4    2   18 1
   5    2   19 1
   6    2   20 1
   7    4    6 1
   8    4   21 1
   9    5    6 ar
  10    5   10 ar
  11    5   11 1
  12    6    7 ar
  13    7    8 ar
  14    7   22 1
  15    8    9 ar
  16    8   23 1
  17    9   10 ar
  18    9   24 1
  19   10   25 1
  20   11   12 ar
  21   11   16 ar
  22   12   13 ar
  23   12   26 1
  24   13   14 ar
  25   13   17 1
  26   14   15 ar
  27   14   27 1
  28   15   16 ar
  29   15   28 1
  30   16   29 1
  31   17   30 1
  32   17   31 1

#	End of record

