#	Name: ASD02198106
#	Creating user name:	WinNT
#	Creation time:	15. 06. 2019 20:18

#	Modifying user name:	WinNT
#	Modification time:	15. 06. 2019 20:18

#	Program:	/corina/corina34_cracker 3.40 0067  02.08.2006

@<TRIPOS>MOLECULE
ASD02198106
  48   50    0    0    0
SMALL
NO_CHARGES


@<TRIPOS>ATOM
   1 C1            -0.1269     1.4051    -0.5015 C.2     
   2 C2             0.0016     0.0332    -0.4506 C.2     
   3 C3            -1.1047    -0.8465    -0.2206 C.1     
   4 S4             1.3809     2.1462    -0.7919 S.3     
   5 C5             2.2058     0.5967    -0.8478 C.2     
   6 C6             1.3052    -0.4200    -0.6441 C.2     
   7 C7             3.5874     0.4224    -1.0685 C.2     
   8 C8             4.4343     1.5850    -1.3992 C.ar    
   9 O9             4.0827    -0.6892    -0.9863 O.2     
  10 N10            1.6574    -1.7614    -0.6317 N.pl3   
  11 N11           -1.3132     2.0843    -0.3448 N.pl3   
  12 N12           -1.9823    -1.5443    -0.0381 N.1     
  13 C13            5.2746     2.1387    -0.4300 C.ar    
  14 C14           -1.3167     3.4827    -0.2878 C.ar    
  15 C15            6.0635     3.2228    -0.7421 C.ar    
  16 C16            6.0275     3.7702    -2.0203 C.ar    
  17 C17            5.1965     3.2278    -2.9899 C.ar    
  18 C18            4.4029     2.1346    -2.6892 C.ar    
  19 C19           -2.3685     4.1982    -0.8452 C.ar    
  20 O20            3.5894     1.6028    -3.6363 O.3     
  21 C21            3.6019     2.2218    -4.9242 C.3     
  22 C22           -0.2711     4.1555     0.3313 C.ar    
  23 C23           -0.2756     5.5351     0.3875 C.ar    
  24 C24           -1.3240     6.2492    -0.1742 C.ar    
  25 C25           -2.3713     5.5779    -0.7881 C.ar    
  26 O26            6.8082     4.8395    -2.3200 O.3     
  27 C27            7.6399     5.3487    -1.2755 C.3     
  28 O28           -1.3276     7.6079    -0.1184 O.3     
  29 C29           -2.4382     8.2788    -0.7171 C.3     
  30 H30            2.5813    -2.0216    -0.7717 H       
  31 H31            0.9797    -2.4394    -0.4831 H       
  32 H32           -2.1471     1.5940    -0.2738 H       
  33 H33            5.3050     1.7166     0.5636 H       
  34 H34            6.7124     3.6499     0.0082 H       
  35 H35            5.1720     3.6563    -3.9809 H       
  36 H36           -3.1837     3.6757    -1.3235 H       
  37 H37            2.9091     1.7003    -5.5846 H       
  38 H38            3.2983     3.2643    -4.8292 H       
  39 H39            4.6078     2.1728    -5.3411 H       
  40 H40            0.5449     3.5997     0.7689 H       
  41 H41            0.5371     6.0585     0.8691 H       
  42 H42           -3.1870     6.1346    -1.2251 H       
  43 H43            7.0183     5.6655    -0.4380 H       
  44 H44            8.3258     4.5690    -0.9444 H       
  45 H45            8.2099     6.2002    -1.6473 H       
  46 H46           -2.4852     8.0291    -1.7770 H       
  47 H47           -3.3599     7.9632    -0.2282 H       
  48 H48           -2.3167     9.3560    -0.6026 H       
@<TRIPOS>BOND
   1    1    2 2
   2    1    4 1
   3    1   11 1
   4    2    3 1
   5    2    6 1
   6    3   12 3
   7    4    5 1
   8    5    6 2
   9    5    7 1
  10    6   10 1
  11    7    8 1
  12    7    9 2
  13    8   13 ar
  14    8   18 ar
  15   10   30 1
  16   10   31 1
  17   11   14 1
  18   11   32 1
  19   13   15 ar
  20   13   33 1
  21   14   22 ar
  22   14   19 ar
  23   15   16 ar
  24   15   34 1
  25   16   17 ar
  26   16   26 1
  27   17   18 ar
  28   17   35 1
  29   18   20 1
  30   19   25 ar
  31   19   36 1
  32   20   21 1
  33   21   37 1
  34   21   38 1
  35   21   39 1
  36   22   23 ar
  37   22   40 1
  38   23   24 ar
  39   23   41 1
  40   24   25 ar
  41   24   28 1
  42   25   42 1
  43   26   27 1
  44   27   43 1
  45   27   44 1
  46   27   45 1
  47   28   29 1
  48   29   46 1
  49   29   47 1
  50   29   48 1

#	End of record

