#	Name: ASD01148481
#	Creating user name:	WinNT
#	Creation time:	15. 06. 2019 19:02

#	Modifying user name:	WinNT
#	Modification time:	15. 06. 2019 19:02

#	Program:	/corina/corina34_cracker 3.40 0067  02.08.2006

@<TRIPOS>MOLECULE
ASD01148481
  61   64    0    0    0
SMALL
NO_CHARGES


@<TRIPOS>ATOM
   1 C1             0.3634     1.8406     0.0684 C.ar    
   2 C2             0.4618     0.4626    -0.0065 C.ar    
   3 C3            -0.6836    -0.3085    -0.0937 C.ar    
   4 C4            -1.9254     0.2982    -0.1060 C.ar    
   5 C5            -2.0232     1.6751    -0.0311 C.ar    
   6 C6            -0.8792     2.4458     0.0618 C.ar    
   7 C7            -3.3775     2.3359    -0.0451 C.3     
   8 O8            -4.3700     1.4920     0.5732 O.3     
   9 C9            -3.3981     3.5762     0.8800 C.3     
  10 C10           -3.9251     3.0066     2.1833 C.2     
  11 N11           -4.4454     1.8508     1.9387 N.2     
  12 C12           -3.8547     3.6612     3.5044 C.ar    
  13 C13           -4.3820     3.0223     4.6299 C.ar    
  14 C14           -3.2559     4.9170     3.6308 C.ar    
  15 C15           -3.1904     5.5275     4.8630 C.ar    
  16 C16           -3.7225     4.8914     5.9868 C.ar    
  17 C17           -4.3163     3.6329     5.8616 C.ar    
  18 C18           -3.6517     5.5466     7.3097 C.2     
  19 O19           -4.2110     5.0469     8.2663 O.2     
  20 N20           -2.9669     6.6983     7.4554 N.am    
  21 C21           -4.8904     2.9467     7.0743 C.3     
  22 C22           -3.7872     2.7086    -1.4713 C.3     
  23 F23           -3.8265     1.5550    -2.2618 F       
  24 F24           -5.0529     3.3043    -1.4523 F       
  25 F25           -2.8567     3.6074    -2.0040 F       
  26 Cl26           2.0220    -0.2986     0.0084 Cl      
  27 N27           -2.8997     7.3195     8.7094 N.pl3   
  28 C28           -2.0337     6.7681     9.7545 C.3     
  29 C29           -3.6584     8.4644     8.9631 C.ar    
  30 C30           -3.5930     9.0815    10.2059 C.ar    
  31 C31           -4.3441    10.2137    10.4533 C.ar    
  32 C32           -5.1607    10.7331     9.4656 C.ar    
  33 C33           -5.2286    10.1210     8.2274 C.ar    
  34 C34           -4.4757     8.9918     7.9714 C.ar    
  35 C35           -0.5772    -1.8095    -0.1758 C.3     
  36 F36           -1.8591    -2.3641    -0.2558 F       
  37 F37            0.1559    -2.1634    -1.3136 F       
  38 F38            0.0703    -2.2942     0.9656 F       
  39 C39            1.6105     2.6812     0.1634 C.3     
  40 F40            1.2577     4.0335     0.2273 F       
  41 F41            2.3228     2.3303     1.3152 F       
  42 F42            2.4088     2.4603    -0.9640 F       
  43 H43           -2.8196    -0.3036    -0.1745 H       
  44 H44           -0.9562     3.5214     0.1203 H       
  45 H45           -2.3933     3.9776     1.0114 H       
  46 H46           -4.0726     4.3385     0.4901 H       
  47 H47           -4.8413     2.0497     4.5331 H       
  48 H48           -2.8441     5.4088     2.7619 H       
  49 H49           -2.7271     6.4982     4.9608 H       
  50 H50           -2.5206     7.0971     6.6921 H       
  51 H51           -5.8978     3.3194     7.2597 H       
  52 H52           -4.9272     1.8714     6.8999 H       
  53 H53           -4.2616     3.1530     7.9403 H       
  54 H54           -1.0439     7.2186     9.6812 H       
  55 H55           -2.4609     6.9867    10.7332 H       
  56 H56           -1.9520     5.6887     9.6266 H       
  57 H57           -2.9557     8.6762    10.9779 H       
  58 H58           -4.2940    10.6938    11.4195 H       
  59 H59           -5.7471    11.6186     9.6616 H       
  60 H60           -5.8676    10.5290     7.4583 H       
  61 H61           -4.5292     8.5142     7.0043 H       
@<TRIPOS>BOND
   1    1    2 ar
   2    1   39 1
   3    1    6 ar
   4    2    3 ar
   5    2   26 1
   6    3    4 ar
   7    3   35 1
   8    4    5 ar
   9    4   43 1
  10    5    6 ar
  11    5    7 1
  12    6   44 1
  13    7    8 1
  14    7    9 1
  15    7   22 1
  16    8   11 1
  17    9   10 1
  18    9   45 1
  19    9   46 1
  20   10   11 2
  21   10   12 1
  22   12   13 ar
  23   12   14 ar
  24   13   17 ar
  25   13   47 1
  26   14   15 ar
  27   14   48 1
  28   15   16 ar
  29   15   49 1
  30   16   17 ar
  31   16   18 1
  32   17   21 1
  33   18   19 2
  34   18   20 am
  35   20   27 1
  36   20   50 1
  37   21   51 1
  38   21   52 1
  39   21   53 1
  40   22   23 1
  41   22   24 1
  42   22   25 1
  43   27   28 1
  44   27   29 1
  45   28   54 1
  46   28   55 1
  47   28   56 1
  48   29   30 ar
  49   29   34 ar
  50   30   31 ar
  51   30   57 1
  52   31   32 ar
  53   31   58 1
  54   32   33 ar
  55   32   59 1
  56   33   34 ar
  57   33   60 1
  58   34   61 1
  59   35   36 1
  60   35   37 1
  61   35   38 1
  62   39   40 1
  63   39   41 1
  64   39   42 1

#	End of record

