#	Name: ASD01812836
#	Creating user name:	WinNT
#	Creation time:	15. 06. 2019 19:29

#	Modifying user name:	WinNT
#	Modification time:	15. 06. 2019 19:29

#	Program:	/corina/corina34_cracker 3.40 0067  02.08.2006

@<TRIPOS>MOLECULE
ASD01812836
  54   58    0    0    0
SMALL
NO_CHARGES


@<TRIPOS>ATOM
   1 N1            -0.0158     1.3146     0.0093 N.ar    
   2 C2             0.0021    -0.0041     0.0020 C.ar    
   3 C3             1.1989    -0.7035    -0.0132 C.ar    
   4 C4             2.3830    -0.0017    -0.0207 C.ar    
   5 C5             2.3453     1.3974    -0.0128 C.ar    
   6 C6             1.0958     2.0332     0.0025 C.ar    
   7 C7             3.8374    -0.3896    -0.0375 C.3     
   8 N8             4.5958     0.8677    -0.0384 N.am    
   9 C9             3.7284     1.8955    -0.0241 C.2     
  10 C10            6.0561     0.9834    -0.0525 C.3     
  11 C11            6.5425     1.0308    -1.4781 C.ar    
  12 C12            6.6702     2.2479    -2.1226 C.ar    
  13 C13            7.1152     2.2969    -3.4283 C.ar    
  14 C14            7.4364     1.1177    -4.0967 C.ar    
  15 C15            7.3064    -0.1054    -3.4428 C.ar    
  16 C16            6.8651    -0.1427    -2.1355 C.ar    
  17 O17            1.0260     3.3854     0.0104 O.3     
  18 O18            4.0435     3.0699    -0.0217 O.2     
  19 C19           -0.2063     3.9612     0.0253 C.ar    
  20 C20            7.9151     1.1643    -5.5014 C.2     
  21 C21           -0.8264     4.2498     1.2363 C.ar    
  22 C22           -2.0821     4.8371     1.2465 C.ar    
  23 C23           -2.7165     5.1346     0.0551 C.ar    
  24 C24           -2.1018     4.8480    -1.1498 C.ar    
  25 C25           -0.8456     4.2674    -1.1680 C.ar    
  26 F26           -0.2445     3.9933    -2.3464 F       
  27 O27           -0.2023     3.9561     2.4082 O.3     
  28 C28            8.2574     0.0920    -6.2725 C.2     
  29 C29            8.0927     2.3230    -6.2822 C.2     
  30 N30            8.5249     1.9567    -7.4597 N.2     
  31 N31            8.6317     0.5608    -7.4800 N.pl3   
  32 C32            9.0779    -0.2501    -8.6155 C.3     
  33 C33           -0.8987     4.2805     3.6132 C.3     
  34 H34           -0.9309    -0.5480     0.0084 H       
  35 H35            1.2022    -1.7834    -0.0186 H       
  36 H36            4.0801    -0.9731     0.8507 H       
  37 H37            4.0620    -0.9635    -0.9366 H       
  38 H38            6.3532     1.8966     0.4632 H       
  39 H39            6.4938     0.1222     0.4523 H       
  40 H40            6.4209     3.1615    -1.6035 H       
  41 H41            7.2139     3.2477    -3.9309 H       
  42 H42            7.5541    -1.0225    -3.9565 H       
  43 H43            6.7675    -1.0901    -1.6263 H       
  44 H44           -2.5652     5.0619     2.1859 H       
  45 H45           -3.6949     5.5918     0.0654 H       
  46 H46           -2.6012     5.0814    -2.0786 H       
  47 H47            8.2333    -0.9445    -5.9702 H       
  48 H48            7.9044     3.3375    -5.9633 H       
  49 H49            8.2179    -0.5244    -9.2264 H       
  50 H50            9.7827     0.3238    -9.2171 H       
  51 H51            9.5652    -1.1531    -8.2479 H       
  52 H52           -1.0907     5.3530     3.6444 H       
  53 H53           -1.8453     3.7409     3.6423 H       
  54 H54           -0.2912     3.9950     4.4720 H       
@<TRIPOS>BOND
   1    1    2 ar
   2    1    6 ar
   3    2    3 ar
   4    2   34 1
   5    3    4 ar
   6    3   35 1
   7    4    7 1
   8    4    5 ar
   9    5    6 ar
  10    5    9 1
  11    6   17 1
  12    7    8 1
  13    7   36 1
  14    7   37 1
  15    8    9 am
  16    8   10 1
  17    9   18 2
  18   10   11 1
  19   10   38 1
  20   10   39 1
  21   11   12 ar
  22   11   16 ar
  23   12   13 ar
  24   12   40 1
  25   13   14 ar
  26   13   41 1
  27   14   15 ar
  28   14   20 1
  29   15   16 ar
  30   15   42 1
  31   16   43 1
  32   17   19 1
  33   19   21 ar
  34   19   25 ar
  35   20   29 1
  36   20   28 2
  37   21   22 ar
  38   21   27 1
  39   22   23 ar
  40   22   44 1
  41   23   24 ar
  42   23   45 1
  43   24   25 ar
  44   24   46 1
  45   25   26 1
  46   27   33 1
  47   28   31 1
  48   28   47 1
  49   29   30 2
  50   29   48 1
  51   30   31 1
  52   31   32 1
  53   32   49 1
  54   32   50 1
  55   32   51 1
  56   33   52 1
  57   33   53 1
  58   33   54 1

#	End of record

