#	Name: ASD01917108
#	Creating user name:	WinNT
#	Creation time:	15. 06. 2019 20:08

#	Modifying user name:	WinNT
#	Modification time:	15. 06. 2019 20:08

#	Program:	/corina/corina34_cracker 3.40 0067  02.08.2006

@<TRIPOS>MOLECULE
ASD01917108
  40   42    0    0    0
SMALL
NO_CHARGES


@<TRIPOS>ATOM
   1 C1            -0.0184     1.5028     0.0103 C.3     
   2 C2             0.0021    -0.0041     0.0020 C.2     
   3 N3             0.5336    -0.7573    -0.9243 N.2     
   4 C4             0.3686    -2.0488    -0.6084 C.2     
   5 N5            -0.2770    -2.1240     0.5348 N.2     
   6 N6            -0.5186    -0.8043     0.9496 N.pl3   
   7 C7            -1.2105    -0.3820     2.1700 C.3     
   8 C8            -0.2108    -0.2311     3.2876 C.2     
   9 O9            -0.6205     0.1503     4.5076 O.3     
  10 O10            0.9595    -0.4534     3.0854 O.2     
  11 C11            0.8360    -3.2031    -1.4154 C.ar    
  12 C12            1.5112    -2.9891    -2.6151 C.ar    
  13 C13            1.9441    -4.0655    -3.3624 C.ar    
  14 C14            1.7081    -5.3572    -2.9212 C.ar    
  15 C15            1.0366    -5.5746    -1.7288 C.ar    
  16 C16            0.6058    -4.5043    -0.9724 C.ar    
  17 F17            2.1336    -6.4082    -3.6559 F       
  18 C18            0.7824    -6.9821    -1.2541 C.3     
  19 C19            1.4199     2.0495    -0.0005 C.3     
  20 C20            1.5627     2.8889    -1.2869 C.3     
  21 C21            0.1102     3.2974    -1.6370 C.3     
  22 C22           -0.6995     2.0291    -1.2699 C.3     
  23 H23           -0.5485     1.8639     0.8916 H       
  24 H24           -1.7064     0.5727     1.9947 H       
  25 H25           -1.9524    -1.1317     2.4449 H       
  26 H26            0.0573     0.2334     5.1922 H       
  27 H27            1.6952    -1.9824    -2.9600 H       
  28 H28            2.4672    -3.9005    -4.2927 H       
  29 H29            0.0825    -4.6746    -0.0431 H       
  30 H30            1.6158    -7.3126    -0.6342 H       
  31 H31           -0.1375    -7.0081    -0.6700 H       
  32 H32            0.6851    -7.6438    -2.1148 H       
  33 H33            1.5876     2.6766     0.8751 H       
  34 H34            2.1327     1.2249    -0.0117 H       
  35 H35            2.1729     3.7725    -1.1000 H       
  36 H36            1.9938     2.2888    -2.0881 H       
  37 H37           -0.2083     4.1472    -1.0332 H       
  38 H38            0.0173     3.5209    -2.6998 H       
  39 H39           -0.6336     1.2901    -2.0684 H       
  40 H40           -1.7401     2.2852    -1.0707 H       
@<TRIPOS>BOND
   1    1    2 1
   2    1   19 1
   3    1   22 1
   4    1   23 1
   5    2    3 2
   6    2    6 1
   7    3    4 1
   8    4    5 2
   9    4   11 1
  10    5    6 1
  11    6    7 1
  12    7    8 1
  13    7   24 1
  14    7   25 1
  15    8    9 1
  16    8   10 2
  17    9   26 1
  18   11   12 ar
  19   11   16 ar
  20   12   13 ar
  21   12   27 1
  22   13   14 ar
  23   13   28 1
  24   14   15 ar
  25   14   17 1
  26   15   16 ar
  27   15   18 1
  28   16   29 1
  29   18   30 1
  30   18   31 1
  31   18   32 1
  32   19   20 1
  33   19   33 1
  34   19   34 1
  35   20   21 1
  36   20   35 1
  37   20   36 1
  38   21   22 1
  39   21   37 1
  40   21   38 1
  41   22   39 1
  42   22   40 1

#	End of record

