#	Name: ASD08390024
#	Creating user name:	WinNT
#	Creation time:	15. 06. 2019 21:19

#	Modifying user name:	WinNT
#	Modification time:	15. 06. 2019 21:19

#	Program:	/corina/corina34_cracker 3.40 0067  02.08.2006

@<TRIPOS>MOLECULE
ASD08390024
  54   57    0    0    0
SMALL
NO_CHARGES


@<TRIPOS>ATOM
   1 N1             0.0356     1.3919    -0.3924 N.2     
   2 C2             0.0769    -0.0715    -0.2665 C.3     
   3 C3             1.4835    -0.3593     0.2950 C.3     
   4 N4             2.0778     0.9820     0.4221 N.pl3   
   5 C5             1.1555     1.9038    -0.0012 C.2     
   6 C6             3.4242     1.2803     0.9164 C.3     
   7 C7             1.3916    -1.0299     1.6415 C.ar    
   8 C8             1.4201     3.3608    -0.0093 C.ar    
   9 C9             1.0304     4.1370    -1.1004 C.ar    
  10 C10            1.2798     5.4942    -1.1021 C.ar    
  11 C11            1.9153     6.0849    -0.0246 C.ar    
  12 C12            2.3045     5.3201     1.0604 C.ar    
  13 C13            2.0547     3.9631     1.0767 C.ar    
  14 C14           -0.9987    -0.5564     0.7076 C.3     
  15 C15            1.5511    -2.3995     1.7427 C.ar    
  16 C16            1.1534    -0.2737     2.7742 C.ar    
  17 C17            1.0692    -0.8859     4.0097 C.ar    
  18 C18            1.2236    -2.2607     4.1133 C.ar    
  19 C19            1.4673    -3.0166     2.9758 C.ar    
  20 C20            4.4141     1.1495    -0.2123 C.ar    
  21 C21            4.6451     2.2196    -1.0565 C.ar    
  22 C22            5.5531     2.0996    -2.0919 C.ar    
  23 C23            6.2304     0.9098    -2.2829 C.ar    
  24 C24            6.0000    -0.1600    -1.4381 C.ar    
  25 C25            5.0953    -0.0386    -0.4001 C.ar    
  26 O26            1.1416    -2.8653     5.3276 O.3     
  27 C27            1.3107    -4.2839     5.3588 C.3     
  28 C28           -0.0971    -0.7227    -1.6143 C.2     
  29 O29            0.5107    -1.7325    -1.8804 O.2     
  30 O30           -0.9272    -0.1809    -2.5193 O.3     
  31 H31            2.0580    -0.9700    -0.4015 H       
  32 H32            3.4508     2.2976     1.3069 H       
  33 H33            3.6835     0.5796     1.7101 H       
  34 H34            0.5349     3.6768    -1.9424 H       
  35 H35            0.9785     6.0964    -1.9465 H       
  36 H36            2.1086     7.1475    -0.0307 H       
  37 H37            2.8006     5.7869     1.8985 H       
  38 H38            2.3544     3.3679     1.9266 H       
  39 H39           -1.9830    -0.2829     0.3275 H       
  40 H40           -0.9362    -1.6399     0.8080 H       
  41 H41           -0.8433    -0.0917     1.6813 H       
  42 H42            1.7411    -2.9875     0.8569 H       
  43 H43            1.0336     0.7966     2.6932 H       
  44 H44            0.8835    -0.2948     4.8943 H       
  45 H45            1.5879    -4.0870     3.0538 H       
  46 H46            4.1160     3.1491    -0.9073 H       
  47 H47            5.7331     2.9353    -2.7518 H       
  48 H48            6.9393     0.8158    -3.0922 H       
  49 H49            6.5290    -1.0897    -1.5876 H       
  50 H50            4.9153    -0.8743     0.2599 H       
  51 H51            2.2959    -4.5410     4.9696 H       
  52 H52            1.2221    -4.6379     6.3859 H       
  53 H53            0.5432    -4.7549     4.7446 H       
  54 H54           -1.0060    -0.6344    -3.3697 H       
@<TRIPOS>BOND
   1    1    2 1
   2    1    5 2
   3    2    3 1
   4    2   14 1
   5    2   28 1
   6    3    4 1
   7    3    7 1
   8    3   31 1
   9    4    5 1
  10    4    6 1
  11    5    8 1
  12    6   20 1
  13    6   32 1
  14    6   33 1
  15    7   15 ar
  16    7   16 ar
  17    8    9 ar
  18    8   13 ar
  19    9   10 ar
  20    9   34 1
  21   10   11 ar
  22   10   35 1
  23   11   12 ar
  24   11   36 1
  25   12   13 ar
  26   12   37 1
  27   13   38 1
  28   14   39 1
  29   14   40 1
  30   14   41 1
  31   15   19 ar
  32   15   42 1
  33   16   17 ar
  34   16   43 1
  35   17   18 ar
  36   17   44 1
  37   18   19 ar
  38   18   26 1
  39   19   45 1
  40   20   21 ar
  41   20   25 ar
  42   21   22 ar
  43   21   46 1
  44   22   23 ar
  45   22   47 1
  46   23   24 ar
  47   23   48 1
  48   24   25 ar
  49   24   49 1
  50   25   50 1
  51   26   27 1
  52   27   51 1
  53   27   52 1
  54   27   53 1
  55   28   29 2
  56   28   30 1
  57   30   54 1

#	End of record

