#	Name: ASD01382001
#	Creating user name:	WinNT
#	Creation time:	15. 06. 2019 19:16

#	Modifying user name:	WinNT
#	Modification time:	15. 06. 2019 19:16

#	Program:	/corina/corina34_cracker 3.40 0067  02.08.2006

@<TRIPOS>MOLECULE
ASD01382001
  39   42    0    0    0
SMALL
NO_CHARGES


@<TRIPOS>ATOM
   1 C1            -0.0168     1.3847     0.0097 C.ar    
   2 C2             0.0021    -0.0041     0.0020 C.ar    
   3 C3             1.1870    -0.6830    -0.0125 C.ar    
   4 C4             2.3913     0.0231    -0.0202 C.ar    
   5 C5             2.3778     1.4297    -0.0129 C.ar    
   6 C6             1.1579     2.1020     0.0023 C.ar    
   7 C7             3.8044    -0.3750    -0.0354 C.2     
   8 N8             4.5240     0.7231    -0.0365 N.2     
   9 N9             3.6858     1.8424    -0.0231 N.pl3   
  10 C10            4.3217    -1.7575    -0.0467 C.2     
  11 O11            3.7678    -2.8141     0.5787 O.3     
  12 C12            4.5103    -3.9095     0.3475 C.2     
  13 C13            5.5541    -3.5668    -0.4325 C.2     
  14 C14            5.4377    -2.1872    -0.6955 C.2     
  15 C15            4.1344     3.2371    -0.0207 C.3     
  16 C16            4.2751     3.7219    -1.4406 C.ar    
  17 C17            3.2001     4.3109    -2.0796 C.ar    
  18 C18            3.3291     4.7556    -3.3820 C.ar    
  19 C19            4.5334     4.6118    -4.0454 C.ar    
  20 C20            5.6087     4.0237    -3.4061 C.ar    
  21 C21            5.4809     3.5829    -2.1021 C.ar    
  22 C22            4.2237    -5.2922     0.8738 C.3     
  23 O23            4.8666    -5.4633     2.1385 O.3     
  24 H24           -0.9622     1.9067     0.0169 H       
  25 H25           -0.9286    -0.5520     0.0079 H       
  26 H26            1.1923    -1.7630    -0.0176 H       
  27 H27            1.1339     3.1817     0.0080 H       
  28 H28            6.3309    -4.2256    -0.7915 H       
  29 H29            6.1086    -1.5858    -1.2911 H       
  30 H30            3.4032     3.8530     0.5028 H       
  31 H31            5.0976     3.3080     0.4847 H       
  32 H32            2.2592     4.4232    -1.5613 H       
  33 H33            2.4890     5.2151    -3.8815 H       
  34 H34            4.6340     4.9586    -5.0632 H       
  35 H35            6.5495     3.9110    -3.9244 H       
  36 H36            6.3210     3.1234    -1.6026 H       
  37 H37            3.1478    -5.4198     0.9930 H       
  38 H38            4.6019    -6.0343     0.1706 H       
  39 H39            4.7249    -6.3327     2.5374 H       
@<TRIPOS>BOND
   1    1    2 ar
   2    1    6 ar
   3    1   24 1
   4    2    3 ar
   5    2   25 1
   6    3    4 ar
   7    3   26 1
   8    4    5 ar
   9    4    7 1
  10    5    6 ar
  11    5    9 1
  12    6   27 1
  13    7    8 2
  14    7   10 1
  15    8    9 1
  16    9   15 1
  17   10   11 1
  18   10   14 2
  19   11   12 1
  20   12   13 2
  21   12   22 1
  22   13   14 1
  23   13   28 1
  24   14   29 1
  25   15   16 1
  26   15   30 1
  27   15   31 1
  28   16   17 ar
  29   16   21 ar
  30   17   18 ar
  31   17   32 1
  32   18   19 ar
  33   18   33 1
  34   19   20 ar
  35   19   34 1
  36   20   21 ar
  37   20   35 1
  38   21   36 1
  39   22   23 1
  40   22   37 1
  41   22   38 1
  42   23   39 1

#	End of record

