#	Name: ASD01881642
#	Creating user name:	WinNT
#	Creation time:	15. 06. 2019 19:43

#	Modifying user name:	WinNT
#	Modification time:	15. 06. 2019 19:43

#	Program:	/corina/corina34_cracker 3.40 0067  02.08.2006

@<TRIPOS>MOLECULE
ASD01881642
  55   59    0    0    0
SMALL
NO_CHARGES


@<TRIPOS>ATOM
   1 C1             2.7803     1.0933    -0.0389 C.2     
   2 N2             2.5568    -0.2045    -0.2755 N.am    
   3 C3             1.2689    -0.4364    -0.5975 C.2     
   4 C4             0.5861     0.9163    -0.5561 C.3     
   5 N5             1.6703     1.8400    -0.1804 N.am    
   6 O6             3.8639     1.5462     0.2739 O.2     
   7 O7             0.7620    -1.5047    -0.8652 O.2     
   8 C8             3.5852    -1.2447    -0.1953 C.3     
   9 C9             3.6317    -1.8073     1.2268 C.3     
  10 C10            1.5609     3.2893     0.0041 C.3     
  11 C11            0.5637     3.5868     1.1257 C.3     
  12 C12            1.0813     3.9238    -1.2759 C.ar    
  13 C13            1.8187     4.9376    -1.8608 C.ar    
  14 C14            1.3845     5.5224    -3.0329 C.ar    
  15 C15            0.2002     5.0896    -3.6275 C.ar    
  16 C16           -0.5387     4.0676    -3.0335 C.ar    
  17 C17           -0.0917     3.4864    -1.8644 C.ar    
  18 C18           -1.8584     7.3083    -8.4693 C.2     
  19 N19           -2.9803     6.5870    -8.6348 N.am    
  20 C20           -3.0967     5.6336    -7.5256 C.3     
  21 C21           -1.8923     5.8606    -6.6462 C.ar    
  22 C22           -1.4582     5.2794    -5.4805 C.ar    
  23 C23           -0.2719     5.7143    -4.8867 C.ar    
  24 C24            0.4687     6.7377    -5.4791 C.ar    
  25 C25            0.0334     7.3202    -6.6475 C.ar    
  26 C26           -1.1541     6.8866    -7.2443 C.ar    
  27 O27           -1.4760     8.1807    -9.2247 O.2     
  28 C28           -3.9310     6.7298    -9.7402 C.3     
  29 C29           -4.6104     8.0893    -9.9165 C.3     
  30 C30           -3.5307     7.6401   -10.9031 C.3     
  31 H31            0.1854     1.1738    -1.5366 H       
  32 H32           -0.2029     0.9248     0.1959 H       
  33 H33            3.3473    -2.0456    -0.8953 H       
  34 H34            4.5552    -0.8169    -0.4486 H       
  35 H35            3.8697    -1.0064     1.9268 H       
  36 H36            2.6617    -2.2351     1.4802 H       
  37 H37            4.3969    -2.5812     1.2865 H       
  38 H38            2.5368     3.6966     0.2681 H       
  39 H39            0.9106     3.1278     2.0515 H       
  40 H40            0.4823     4.6650     1.2629 H       
  41 H41           -0.4123     3.1794     0.8616 H       
  42 H42            2.7358     5.2723    -1.3990 H       
  43 H43            1.9608     6.3140    -3.4885 H       
  44 H44           -1.4569     3.7283    -3.4898 H       
  45 H45           -0.6608     2.6912    -1.4059 H       
  46 H46           -4.0116     5.8223    -6.9639 H       
  47 H47           -3.0947     4.6127    -7.9074 H       
  48 H48           -2.0330     4.4871    -5.0241 H       
  49 H49            1.3861     7.0740    -5.0191 H       
  50 H50            0.6089     8.1124    -7.1032 H       
  51 H51           -4.5160     5.8406    -9.9750 H       
  52 H52           -5.6423     8.0945   -10.2676 H       
  53 H53           -4.3501     8.8774    -9.2100 H       
  54 H54           -2.5601     8.1326   -10.8456 H       
  55 H55           -3.8523     7.3497   -11.9032 H       
@<TRIPOS>BOND
   1    1    2 am
   2    1    5 am
   3    1    6 2
   4    2    3 am
   5    2    8 1
   6    3    4 1
   7    3    7 2
   8    4    5 1
   9    4   31 1
  10    4   32 1
  11    5   10 1
  12    8    9 1
  13    8   33 1
  14    8   34 1
  15    9   35 1
  16    9   36 1
  17    9   37 1
  18   10   11 1
  19   10   12 1
  20   10   38 1
  21   11   39 1
  22   11   40 1
  23   11   41 1
  24   12   13 ar
  25   12   17 ar
  26   13   14 ar
  27   13   42 1
  28   14   15 ar
  29   14   43 1
  30   15   16 ar
  31   15   23 1
  32   16   17 ar
  33   16   44 1
  34   17   45 1
  35   18   19 am
  36   18   26 1
  37   18   27 2
  38   19   20 1
  39   19   28 1
  40   20   21 1
  41   20   46 1
  42   20   47 1
  43   21   22 ar
  44   21   26 ar
  45   22   23 ar
  46   22   48 1
  47   23   24 ar
  48   24   25 ar
  49   24   49 1
  50   25   26 ar
  51   25   50 1
  52   28   29 1
  53   28   30 1
  54   28   51 1
  55   29   30 1
  56   29   52 1
  57   29   53 1
  58   30   54 1
  59   30   55 1

#	End of record

