#	Name: ASD01880167
#	Creating user name:	WinNT
#	Creation time:	15. 06. 2019 19:40

#	Modifying user name:	WinNT
#	Modification time:	15. 06. 2019 19:40

#	Program:	/corina/corina34_cracker 3.40 0067  02.08.2006

@<TRIPOS>MOLECULE
ASD01880167
  60   63    0    0    0
SMALL
NO_CHARGES


@<TRIPOS>ATOM
   1 C1            -0.0166     1.3765     0.0096 C.ar    
   2 C2             0.0021    -0.0041     0.0020 C.ar    
   3 C3             1.2139    -0.6894    -0.0128 C.ar    
   4 C4             2.4079    -0.0031    -0.0205 C.ar    
   5 C5             2.4105     1.3875    -0.0135 C.ar    
   6 C6             1.1879     2.0828     0.0019 C.ar    
   7 O7            -1.1679    -0.6972     0.0095 O.3     
   8 C8            -1.0771    -2.1233     0.0009 C.3     
   9 C9            -2.4842    -2.7240     0.0111 C.3     
  10 C10           -4.8719    -6.9700     0.0111 C.ar    
  11 C11           -4.8544    -8.3587     0.0035 C.ar    
  12 C12           -6.0382    -9.0646     0.0163 C.ar    
  13 C13           -7.2553    -8.3823     0.0374 C.ar    
  14 C14           -7.2690    -6.9869     0.0455 C.ar    
  15 C15           -6.0813    -6.2876     0.0322 C.ar    
  16 C16           -8.5280    -9.1363     0.0507 C.2     
  17 N17           -8.6619   -10.4462     0.0452 N.2     
  18 N18           -9.9042   -10.7710     0.0609 N.2     
  19 N19          -10.6444    -9.7160     0.0774 N.2     
  20 N20           -9.7774    -8.6093     0.0768 N.pl3   
  21 N21            3.4148     2.3326    -0.0189 N.pl3   
  22 C22            2.8714     3.5880    -0.0079 C.2     
  23 C23            1.5315     3.5069     0.0050 C.2     
  24 C24            4.8494     2.0363    -0.0340 C.3     
  25 C25            5.3096     1.8166    -1.4766 C.3     
  26 C26            5.0412     3.0807    -2.2957 C.3     
  27 C27            6.8079     1.5072    -1.4924 C.3     
  28 C28            4.5399     0.6422    -2.0842 C.3     
  29 C29           -2.3870    -4.2509     0.0020 C.3     
  30 O30           -3.7033    -6.2777     0.0037 O.3     
  31 C31           -3.7941    -4.8516     0.0122 C.3     
  32 H32           -0.9574     1.9070     0.0170 H       
  33 H33            1.2176    -1.7694    -0.0179 H       
  34 H34            3.3421    -0.5448    -0.0316 H       
  35 H35           -0.5497    -2.4485    -0.8959 H       
  36 H36           -0.5327    -2.4580     0.8840 H       
  37 H37           -3.0116    -2.3989     0.9080 H       
  38 H38           -3.0286    -2.3893    -0.8719 H       
  39 H39           -3.9121    -8.8861    -0.0128 H       
  40 H40           -6.0238   -10.1445     0.0097 H       
  41 H41           -8.2091    -6.4555     0.0614 H       
  42 H42           -6.0912    -5.2076     0.0384 H       
  43 H43          -10.0206    -7.6703     0.0874 H       
  44 H44            3.4367     4.5082    -0.0092 H       
  45 H45            0.8380     4.3348     0.0148 H       
  46 H46            5.3978     2.8730     0.3988 H       
  47 H47            5.0407     1.1357     0.5495 H       
  48 H48            5.5895     3.9174    -1.8628 H       
  49 H49            5.3690     2.9242    -3.3233 H       
  50 H50            3.9738     3.3011    -2.2844 H       
  51 H51            6.9991     0.6066    -0.9089 H       
  52 H52            7.1357     1.3507    -2.5201 H       
  53 H53            7.3563     2.3439    -1.0596 H       
  54 H54            3.4724     0.8626    -2.0729 H       
  55 H55            4.8677     0.4857    -3.1118 H       
  56 H56            4.7311    -0.2584    -1.5006 H       
  57 H57           -1.8597    -4.5760    -0.8948 H       
  58 H58           -1.8427    -4.5856     0.8851 H       
  59 H59           -4.3215    -4.5264     0.9090 H       
  60 H60           -4.3385    -4.5169    -0.8708 H       
@<TRIPOS>BOND
   1    1    2 ar
   2    1    6 ar
   3    1   32 1
   4    2    3 ar
   5    2    7 1
   6    3    4 ar
   7    3   33 1
   8    4    5 ar
   9    4   34 1
  10    5    6 ar
  11    5   21 1
  12    6   23 1
  13    7    8 1
  14    8    9 1
  15    8   35 1
  16    8   36 1
  17    9   29 1
  18    9   37 1
  19    9   38 1
  20   10   11 ar
  21   10   15 ar
  22   10   30 1
  23   11   12 ar
  24   11   39 1
  25   12   13 ar
  26   12   40 1
  27   13   14 ar
  28   13   16 1
  29   14   15 ar
  30   14   41 1
  31   15   42 1
  32   16   17 2
  33   16   20 1
  34   17   18 1
  35   18   19 2
  36   19   20 1
  37   20   43 1
  38   21   22 1
  39   21   24 1
  40   22   23 2
  41   22   44 1
  42   23   45 1
  43   24   25 1
  44   24   46 1
  45   24   47 1
  46   25   26 1
  47   25   27 1
  48   25   28 1
  49   26   48 1
  50   26   49 1
  51   26   50 1
  52   27   51 1
  53   27   52 1
  54   27   53 1
  55   28   54 1
  56   28   55 1
  57   28   56 1
  58   29   31 1
  59   29   57 1
  60   29   58 1
  61   30   31 1
  62   31   59 1
  63   31   60 1

#	End of record

