#	Name: ASD01708003
#	Creating user name:	WinNT
#	Creation time:	15. 06. 2019 19:22

#	Modifying user name:	WinNT
#	Modification time:	15. 06. 2019 19:22

#	Program:	/corina/corina34_cracker 3.40 0067  02.08.2006

@<TRIPOS>MOLECULE
ASD01708003
  65   69    0    0    0
SMALL
NO_CHARGES


@<TRIPOS>ATOM
   1 C1            -0.0739     1.8268     0.2406 C.2     
   2 N2            -0.3261     2.9152     0.9090 N.2     
   3 N3             0.8702     3.5853     1.1924 N.pl3   
   4 C4             1.9035     2.8542     0.6613 C.ar    
   5 C5             1.3240     1.7256     0.0480 C.ar    
   6 C6             3.2819     3.0235     0.6313 C.ar    
   7 C7             4.0769     2.0763    -0.0047 C.ar    
   8 C8             3.4917     0.9556    -0.6134 C.ar    
   9 C9             2.1429     0.7814    -0.5894 C.ar    
  10 C10            5.5431     2.2508    -0.0400 C.2     
  11 O11            6.2724     1.2801     0.0216 O.2     
  12 N12            6.0725     3.4861    -0.1406 N.am    
  13 C13            7.5253     3.7068    -0.0477 C.3     
  14 C14            5.2253     4.6644    -0.3529 C.3     
  15 C15            5.8400     5.5490    -1.4092 C.ar    
  16 C16            7.1226     5.3565    -1.8753 C.ar    
  17 C17            8.0052     4.2432    -1.3953 C.3     
  18 C18            5.0642     6.5870    -1.9117 C.ar    
  19 C19            5.5640     7.4389    -2.8723 C.ar    
  20 C20            6.8667     7.2562    -3.3449 C.ar    
  21 C21            7.6391     6.2114    -2.8400 C.ar    
  22 Cl22           9.2584     5.9780    -3.4205 Cl      
  23 Cl23           4.5825     8.7298    -3.4918 Cl      
  24 C24            7.4200     8.1622    -4.3718 C.2     
  25 O25            8.0113     9.1705    -4.0378 O.2     
  26 N26            7.2693     7.8711    -5.6791 N.am    
  27 C27            7.8181     8.7697    -6.6976 C.3     
  28 C28            8.0822     7.9830    -7.9830 C.3     
  29 C29            6.8312     9.8735    -6.9781 C.2     
  30 O30            7.1227    10.8204    -7.8837 O.3     
  31 O31            5.7775     9.9062    -6.3877 O.2     
  32 C32            9.1591     6.9589    -7.7329 C.ar    
  33 C33            8.8198     5.6908    -7.3006 C.ar    
  34 C34            9.8078     4.7513    -7.0711 C.ar    
  35 C35           11.1348     5.0801    -7.2743 C.ar    
  36 C36           11.4741     6.3484    -7.7076 C.ar    
  37 C37           10.4861     7.2863    -7.9412 C.ar    
  38 S38            9.3753     3.1349    -6.5188 S.o2    
  39 C39            9.1412     2.1827    -8.0450 C.3     
  40 O40           10.5277     2.6830    -5.8210 O.2     
  41 O41            8.1357     3.3139    -5.8476 O.2     
  42 H42           -0.8099     1.1163    -0.1057 H       
  43 H43            0.9541     4.4204     1.6786 H       
  44 H44            3.7335     3.8860     1.0988 H       
  45 H45            4.1173     0.2255    -1.1053 H       
  46 H46            1.7021    -0.0846    -1.0607 H       
  47 H47            7.7386     4.4338     0.7358 H       
  48 H48            8.0279     2.7655     0.1747 H       
  49 H49            4.2352     4.3452    -0.6784 H       
  50 H50            5.1376     5.2209     0.5802 H       
  51 H51            9.0236     4.6156    -1.2844 H       
  52 H52            7.9970     3.4375    -2.1293 H       
  53 H53            4.0580     6.7271    -1.5452 H       
  54 H54            6.7975     7.0665    -5.9456 H       
  55 H55            8.7521     9.2005    -6.3369 H       
  56 H56            7.1673     7.4794    -8.2952 H       
  57 H57            8.4063     8.6669    -8.7675 H       
  58 H58            6.4584    11.5079    -8.0294 H       
  59 H59            7.7829     5.4338    -7.1417 H       
  60 H60           11.9066     4.3464    -7.0944 H       
  61 H61           12.5111     6.6054    -7.8661 H       
  62 H62           10.7512     8.2770    -8.2797 H       
  63 H63           10.0679     2.1823    -8.6188 H       
  64 H64            8.8680     1.1575    -7.7953 H       
  65 H65            8.3469     2.6363    -8.6379 H       
@<TRIPOS>BOND
   1    1    2 2
   2    1    5 1
   3    1   42 1
   4    2    3 1
   5    3    4 1
   6    3   43 1
   7    4    5 ar
   8    4    6 ar
   9    5    9 ar
  10    6    7 ar
  11    6   44 1
  12    7    8 ar
  13    7   10 1
  14    8    9 ar
  15    8   45 1
  16    9   46 1
  17   10   11 2
  18   10   12 am
  19   12   13 1
  20   12   14 1
  21   13   17 1
  22   13   47 1
  23   13   48 1
  24   14   15 1
  25   14   49 1
  26   14   50 1
  27   15   16 ar
  28   15   18 ar
  29   16   17 1
  30   16   21 ar
  31   17   51 1
  32   17   52 1
  33   18   19 ar
  34   18   53 1
  35   19   20 ar
  36   19   23 1
  37   20   21 ar
  38   20   24 1
  39   21   22 1
  40   24   25 2
  41   24   26 am
  42   26   27 1
  43   26   54 1
  44   27   28 1
  45   27   29 1
  46   27   55 1
  47   28   32 1
  48   28   56 1
  49   28   57 1
  50   29   30 1
  51   29   31 2
  52   30   58 1
  53   32   33 ar
  54   32   37 ar
  55   33   34 ar
  56   33   59 1
  57   34   35 ar
  58   34   38 1
  59   35   36 ar
  60   35   60 1
  61   36   37 ar
  62   36   61 1
  63   37   62 1
  64   38   39 1
  65   38   40 2
  66   38   41 2
  67   39   63 1
  68   39   64 1
  69   39   65 1

#	End of record

