#	Name: ASD02448161
#	Creating user name:	WinNT
#	Creation time:	15. 06. 2019 20:21

#	Modifying user name:	WinNT
#	Modification time:	15. 06. 2019 20:21

#	Program:	/corina/corina34_cracker 3.40 0067  02.08.2006

@<TRIPOS>MOLECULE
ASD02448161
  52   56    0    0    0
SMALL
NO_CHARGES


@<TRIPOS>ATOM
   1 C1             0.3036     1.6668    -0.1743 C.ar    
   2 C2             0.2133     0.2905    -0.1193 C.ar    
   3 C3             1.3675    -0.4804    -0.0882 C.ar    
   4 C4             2.6130     0.1326    -0.1124 C.ar    
   5 C5             2.7041     1.5089    -0.1670 C.ar    
   6 C6             1.5495     2.2805    -0.1985 C.ar    
   7 N7             1.6414     3.6746    -0.2542 N.am    
   8 C8             0.6532     4.6238    -0.7828 C.3     
   9 C9             1.1329     6.0339    -0.6576 C.2     
  10 N10            2.3447     6.1674    -0.1005 N.am    
  11 S11            2.8956     4.6412     0.2712 S.o2    
  12 O12            0.4770     6.9831    -1.0313 O.2     
  13 O13            2.9426     4.5460     1.6882 O.2     
  14 O14            4.0034     4.3768    -0.5785 O.2     
  15 N15            1.2753    -1.8798    -0.0318 N.pl3   
  16 C16            0.6053    -2.6116     0.9114 C.2     
  17 C17            1.8294    -2.7594    -0.9065 C.2     
  18 N18            1.5256    -3.9718    -0.5349 N.2     
  19 C19            0.7719    -3.9193     0.5820 C.2     
  20 C20            0.2221    -5.0828     1.3202 C.ar    
  21 C21            0.4709    -6.3791     0.8690 C.ar    
  22 C22           -0.5398    -4.8848     2.4697 C.ar    
  23 C23           -1.0488    -5.9706     3.1533 C.ar    
  24 C24           -0.8033    -7.2549     2.6993 C.ar    
  25 C25           -0.0430    -7.4583     1.5603 C.ar    
  26 Cl26           1.4243    -6.6349    -0.5591 Cl      
  27 C27            1.7804    -2.3559    -3.3337 C.ar    
  28 C28            1.0800    -1.2058    -3.6462 C.ar    
  29 C29            0.2782    -1.1689    -4.7714 C.ar    
  30 C30            0.1767    -2.2831    -5.5849 C.ar    
  31 C31            0.8777    -3.4337    -5.2718 C.ar    
  32 C32            1.6792    -3.4697    -4.1463 C.ar    
  33 Br33          -0.9206    -2.2335    -7.1242 Br      
  34 C34            2.6593    -2.3936    -2.1101 C.3     
  35 Cl35          -1.4462    -8.6158     3.5644 Cl      
  36 H36           -0.5943     2.2662    -0.2029 H       
  37 H37           -0.7553    -0.1868    -0.1001 H       
  38 H38            3.5106    -0.4675    -0.0883 H       
  39 H39            3.6730     1.9857    -0.1851 H       
  40 H40            0.4708     4.4008    -1.8341 H       
  41 H41           -0.2794     4.5135    -0.2294 H       
  42 H42            2.8137     7.0013     0.0597 H       
  43 H43            0.0517    -2.2246     1.7540 H       
  44 H44           -0.7315    -3.8833     2.8256 H       
  45 H45           -1.6394    -5.8177     4.0444 H       
  46 H46            0.1457    -8.4624     1.2101 H       
  47 H47            1.1590    -0.3360    -3.0108 H       
  48 H48           -0.2692    -0.2705    -5.0153 H       
  49 H49            0.7984    -4.3040    -5.9064 H       
  50 H50            2.2266    -4.3680    -3.9018 H       
  51 H51            3.1101    -1.4132    -1.9562 H       
  52 H52            3.4445    -3.1367    -2.2495 H       
@<TRIPOS>BOND
   1    1    2 ar
   2    1    6 ar
   3    1   36 1
   4    2    3 ar
   5    2   37 1
   6    3    4 ar
   7    3   15 1
   8    4    5 ar
   9    4   38 1
  10    5    6 ar
  11    5   39 1
  12    6    7 1
  13    7    8 1
  14    7   11 am
  15    8    9 1
  16    8   40 1
  17    8   41 1
  18    9   10 am
  19    9   12 2
  20   10   11 am
  21   10   42 1
  22   11   13 2
  23   11   14 2
  24   15   16 1
  25   15   17 1
  26   16   19 2
  27   16   43 1
  28   17   18 2
  29   17   34 1
  30   18   19 1
  31   19   20 1
  32   20   21 ar
  33   20   22 ar
  34   21   26 1
  35   21   25 ar
  36   22   23 ar
  37   22   44 1
  38   23   24 ar
  39   23   45 1
  40   24   25 ar
  41   24   35 1
  42   25   46 1
  43   27   28 ar
  44   27   32 ar
  45   27   34 1
  46   28   29 ar
  47   28   47 1
  48   29   30 ar
  49   29   48 1
  50   30   31 ar
  51   30   33 1
  52   31   32 ar
  53   31   49 1
  54   32   50 1
  55   34   51 1
  56   34   52 1

#	End of record

