#	Name: ASD04910169
#	Creating user name:	WinNT
#	Creation time:	15. 06. 2019 20:55

#	Modifying user name:	WinNT
#	Modification time:	15. 06. 2019 20:55

#	Program:	/corina/corina34_cracker 3.40 0067  02.08.2006

@<TRIPOS>MOLECULE
ASD04910169
  36   36    0    0    0
SMALL
NO_CHARGES


@<TRIPOS>ATOM
   1 N1            -0.0169     1.3968     0.0097 N.am    
   2 N2             0.0021    -0.0041     0.0020 N.2     
   3 C3             1.2481    -0.3969    -0.0120 C.2     
   4 C4             2.0705     0.7384    -0.0137 C.2     
   5 C5             1.2747     1.8298    -0.0003 C.2     
   6 C6            -1.1163     2.1764     0.0194 C.2     
   7 O7            -1.0031     3.3852     0.0250 O.2     
   8 O8            -2.3390     1.6151     0.0229 O.3     
   9 C9             3.5774     0.7408    -0.0281 C.3     
  10 C10            4.0896    -0.7008    -0.0414 C.3     
  11 C11            4.0744     1.4701    -1.2780 C.3     
  12 C12            4.0982     1.4556     1.2204 C.3     
  13 C13           -3.4778     2.5159     0.0335 C.3     
  14 C14           -3.4368     3.4043    -1.2115 C.3     
  15 C15           -4.7727     1.7010     0.0361 C.3     
  16 C16           -3.4238     3.3916     1.2869 C.3     
  17 H17            1.5871    -1.4223    -0.0202 H       
  18 H18            1.6028     2.8588     0.0021 H       
  19 H19            3.7186    -1.2101    -0.9308 H       
  20 H20            5.1796    -0.6991    -0.0518 H       
  21 H21            3.7356    -1.2204     0.8490 H       
  22 H22            3.7095     2.4972    -1.2685 H       
  23 H23            5.1643     1.4719    -1.2884 H       
  24 H24            3.7034     0.9609    -2.1674 H       
  25 H25            3.7442     0.9361     2.1108 H       
  26 H26            5.1882     1.4574     1.2100 H       
  27 H27            3.7333     2.4827     1.2298 H       
  28 H28           -3.4753     2.7805    -2.1045 H       
  29 H29           -4.2917     4.0805    -1.2036 H       
  30 H30           -2.5143     3.9849    -1.2134 H       
  31 H31           -4.8019     1.0680     0.9230 H       
  32 H32           -5.6275     2.3772     0.0440 H       
  33 H33           -4.8111     1.0771    -0.8569 H       
  34 H34           -2.5013     3.9722     1.2850 H       
  35 H35           -4.2787     4.0678     1.2948 H       
  36 H36           -3.4530     2.7587     2.1738 H       
@<TRIPOS>BOND
   1    1    2 1
   2    1    5 1
   3    1    6 am
   4    2    3 2
   5    3    4 1
   6    3   17 1
   7    4    5 2
   8    4    9 1
   9    5   18 1
  10    6    7 2
  11    6    8 1
  12    8   13 1
  13    9   10 1
  14    9   12 1
  15    9   11 1
  16   10   19 1
  17   10   20 1
  18   10   21 1
  19   11   22 1
  20   11   23 1
  21   11   24 1
  22   12   25 1
  23   12   26 1
  24   12   27 1
  25   13   14 1
  26   13   16 1
  27   13   15 1
  28   14   28 1
  29   14   29 1
  30   14   30 1
  31   15   31 1
  32   15   32 1
  33   15   33 1
  34   16   34 1
  35   16   35 1
  36   16   36 1

#	End of record

