#	Name: ASD01870468
#	Creating user name:	WinNT
#	Creation time:	15. 06. 2019 19:39

#	Modifying user name:	WinNT
#	Modification time:	15. 06. 2019 19:39

#	Program:	/corina/corina34_cracker 3.40 0067  02.08.2006

@<TRIPOS>MOLECULE
ASD01870468
  40   43    0    0    0
SMALL
NO_CHARGES


@<TRIPOS>ATOM
   1 C1            -0.0558     1.4136     0.0665 C.ar    
   2 C2            -0.0446     0.0274     0.0765 C.ar    
   3 C3             1.1525    -0.6637     0.0775 C.ar    
   4 C4             2.3586     0.0197     0.0681 C.ar    
   5 C5             2.3629     1.4053     0.0575 C.ar    
   6 C6             1.1420     2.1101     0.0569 C.ar    
   7 C7             3.4239     2.4343     0.0464 C.2     
   8 N8             2.8438     3.6481     0.0395 N.am    
   9 C9             1.5026     3.5435     0.0452 C.2     
  10 C10            3.5452     4.8630     0.0286 C.ar    
  11 C11            2.8506     6.0652     0.0222 C.ar    
  12 C12            3.5396     7.2617     0.0115 C.ar    
  13 C13            4.9279     7.2636     0.0068 C.ar    
  14 C14            5.6244     6.0598     0.0133 C.ar    
  15 C15            4.9334     4.8627     0.0301 C.ar    
  16 N16            5.6270     8.4776    -0.0050 N.am    
  17 C17            5.1227     9.5392    -0.6646 C.2     
  18 C18            5.7892    10.8422    -0.5751 C.2     
  19 O19            4.1141     9.4164    -1.3347 O.2     
  20 C20            5.3867    11.9934    -1.1895 C.2     
  21 C21            6.3103    12.9872    -0.8296 C.2     
  22 C22            7.2246    12.4065    -0.0216 C.2     
  23 O23            6.9044    11.1152     0.1335 O.3     
  24 C24            4.1838    12.1638    -2.0812 C.3     
  25 O25            0.7192     4.4715     0.0413 O.2     
  26 O26            4.6193     2.2200     0.0443 O.2     
  27 F27            6.9754     6.0605     0.0087 F       
  28 H28           -0.9941     1.9483     0.0616 H       
  29 H29           -0.9777    -0.5163     0.0840 H       
  30 H30            1.1482    -1.7436     0.0861 H       
  31 H31            3.2908    -0.5255     0.0693 H       
  32 H32            1.7706     6.0645     0.0251 H       
  33 H33            2.9985     8.1963     0.0064 H       
  34 H34            5.4733     3.9274     0.0397 H       
  35 H35            6.4739     8.5541     0.4617 H       
  36 H36            6.2936    14.0214    -1.1404 H       
  37 H37            8.0720    12.9027     0.4280 H       
  38 H38            3.3201    12.4415    -1.4771 H       
  39 H39            4.3821    12.9468    -2.8131 H       
  40 H40            3.9792    11.2264    -2.5984 H       
@<TRIPOS>BOND
   1    1    2 ar
   2    1    6 ar
   3    1   28 1
   4    2    3 ar
   5    2   29 1
   6    3    4 ar
   7    3   30 1
   8    4    5 ar
   9    4   31 1
  10    5    7 1
  11    5    6 ar
  12    6    9 1
  13    7    8 am
  14    7   26 2
  15    8    9 am
  16    8   10 1
  17    9   25 2
  18   10   11 ar
  19   10   15 ar
  20   11   12 ar
  21   11   32 1
  22   12   13 ar
  23   12   33 1
  24   13   14 ar
  25   13   16 1
  26   14   15 ar
  27   14   27 1
  28   15   34 1
  29   16   17 am
  30   16   35 1
  31   17   18 1
  32   17   19 2
  33   18   20 2
  34   18   23 1
  35   20   21 1
  36   20   24 1
  37   21   22 2
  38   21   36 1
  39   22   23 1
  40   22   37 1
  41   24   38 1
  42   24   39 1
  43   24   40 1

#	End of record

