#	Name: ASD08150377
#	Creating user name:	WinNT
#	Creation time:	15. 06. 2019 21:15

#	Modifying user name:	WinNT
#	Modification time:	15. 06. 2019 21:15

#	Program:	/corina/corina34_cracker 3.40 0067  02.08.2006

@<TRIPOS>MOLECULE
ASD08150377
  51   56    0    0    0
SMALL
NO_CHARGES


@<TRIPOS>ATOM
   1 N1             0.8871     2.9201    -1.5858 N.am    
   2 C2             1.3133     2.2912    -2.6984 C.2     
   3 C3             2.5231     1.5675    -2.7022 C.2     
   4 C4             3.2788     1.4942    -1.5771 C.2     
   5 C5             2.8335     2.1546    -0.4046 C.ar    
   6 C6             3.5794     2.1107     0.7887 C.ar    
   7 N7             3.1662     2.7208     1.8688 N.ar    
   8 C8             2.0205     3.4179     1.9054 C.ar    
   9 C9             1.2060     3.5162     0.7503 C.ar    
  10 C10            1.6247     2.8669    -0.4347 C.ar    
  11 C11            0.0133     4.2443     0.7991 C.ar    
  12 C12           -0.3600     4.8637     1.9809 C.ar    
  13 C13            0.4514     4.7623     3.1198 C.ar    
  14 C14            1.6142     4.0578     3.0879 C.ar    
  15 O15            0.6435     2.3484    -3.7155 O.2     
  16 C16           -1.6235     5.6380     2.0414 C.ar    
  17 C17           -0.3149     3.6371    -1.6093 C.ar    
  18 C18           -0.3092     4.9960    -1.8968 C.ar    
  19 C19           -1.4966     5.7005    -1.9191 C.ar    
  20 C20           -2.6907     5.0545    -1.6551 C.ar    
  21 C21           -2.6998     3.7019    -1.3682 C.ar    
  22 C22           -1.5161     2.9902    -1.3508 C.ar    
  23 C23           -2.7559     5.1996     1.3366 C.ar    
  24 N24           -3.8838     5.8627     1.3717 N.ar    
  25 C25           -4.0142     6.9896     2.0797 C.ar    
  26 C26           -2.9157     7.4971     2.8185 C.ar    
  27 C27           -1.6968     6.7977     2.7994 C.ar    
  28 C28           -5.2338     7.6883     2.1046 C.ar    
  29 C29           -5.3426     8.8334     2.8321 C.ar    
  30 C30           -4.2615     9.3306     3.5574 C.ar    
  31 C31           -3.0645     8.6824     3.5585 C.ar    
  32 C32           -4.0031     3.0023    -1.0802 C.3     
  33 H33            2.8495     1.0694    -3.6031 H       
  34 H34            4.2059     0.9403    -1.5751 H       
  35 H35            4.5097     1.5627     0.8124 H       
  36 H36           -0.6120     4.3235    -0.0778 H       
  37 H37            0.1492     5.2505     4.0345 H       
  38 H38            2.2267     3.9895     3.9747 H       
  39 H39            0.6230     5.5012    -2.1023 H       
  40 H40           -1.4928     6.7571    -2.1425 H       
  41 H41           -3.6181     5.6077    -1.6729 H       
  42 H42           -1.5244     1.9327    -1.1317 H       
  43 H43           -2.6947     4.2940     0.7514 H       
  44 H44           -0.8407     7.1566     3.3514 H       
  45 H45           -6.0818     7.3177     1.5479 H       
  46 H46           -6.2822     9.3656     2.8473 H       
  47 H47           -4.3749    10.2417     4.1260 H       
  48 H48           -2.2337     9.0771     4.1247 H       
  49 H49           -4.4248     2.6222    -2.0107 H       
  50 H50           -3.8266     2.1726    -0.3957 H       
  51 H51           -4.7006     3.7060    -0.6260 H       
@<TRIPOS>BOND
   1    1    2 am
   2    1   10 1
   3    1   17 1
   4    2    3 1
   5    2   15 2
   6    3    4 2
   7    3   33 1
   8    4    5 1
   9    4   34 1
  10    5    6 ar
  11    5   10 ar
  12    6    7 ar
  13    6   35 1
  14    7    8 ar
  15    8    9 ar
  16    8   14 ar
  17    9   10 ar
  18    9   11 ar
  19   11   12 ar
  20   11   36 1
  21   12   13 ar
  22   12   16 1
  23   13   14 ar
  24   13   37 1
  25   14   38 1
  26   16   23 ar
  27   16   27 ar
  28   17   18 ar
  29   17   22 ar
  30   18   19 ar
  31   18   39 1
  32   19   20 ar
  33   19   40 1
  34   20   21 ar
  35   20   41 1
  36   21   22 ar
  37   21   32 1
  38   22   42 1
  39   23   24 ar
  40   23   43 1
  41   24   25 ar
  42   25   26 ar
  43   25   28 ar
  44   26   27 ar
  45   26   31 ar
  46   27   44 1
  47   28   29 ar
  48   28   45 1
  49   29   30 ar
  50   29   46 1
  51   30   31 ar
  52   30   47 1
  53   31   48 1
  54   32   49 1
  55   32   50 1
  56   32   51 1

#	End of record

