#	Name: ASD03910025
#	Creating user name:	WinNT
#	Creation time:	15. 06. 2019 20:47

#	Modifying user name:	WinNT
#	Modification time:	15. 06. 2019 20:47

#	Program:	/corina/corina34_cracker 3.40 0067  02.08.2006

@<TRIPOS>MOLECULE
ASD03910025
  58   60    0    0    0
SMALL
NO_CHARGES


@<TRIPOS>ATOM
   1 C1            -0.5319    -0.4808     0.5916 C.ar    
   2 C2             0.3869     0.0839     1.4571 C.ar    
   3 C3             0.0906     1.2666     2.1094 C.ar    
   4 C4            -1.1249     1.8875     1.8986 C.ar    
   5 C5            -2.0499     1.3230     1.0301 C.ar    
   6 C6            -1.7468     0.1384     0.3717 C.ar    
   7 N7            -3.2823     1.9495     0.8143 N.am    
   8 C8            -3.3612     3.2949     0.8015 C.2     
   9 C9            -4.6659     3.9700     0.4652 C.3     
  10 O10           -2.3822     3.9623     1.0606 O.2     
  11 C11           -4.4866     5.4653     0.5205 C.ar    
  12 C12           -4.1023     6.1567    -0.6135 C.ar    
  13 C13           -3.9373     7.5274    -0.5654 C.ar    
  14 C14           -4.1576     8.2102     0.6221 C.ar    
  15 C15           -4.5432     7.5141     1.7585 C.ar    
  16 C16           -4.7123     6.1441     1.7037 C.ar    
  17 O17           -3.9956     9.5586     0.6721 O.3     
  18 C18           -4.1832    10.1879     1.9413 C.3     
  19 C19           -5.5563     9.8583     2.4673 C.2     
  20 C20           -0.2049    -1.7698    -0.1173 C.3     
  21 C21            1.0949     1.8784     3.0518 C.3     
  22 O22           -5.7322     9.7247     3.6552 O.2     
  23 O23           -6.5841     9.7130     1.6162 O.3     
  24 C24           -3.1254     9.6805     2.9234 C.3     
  25 C25           -1.7313    10.0152     2.3893 C.3     
  26 C26           -1.5957    11.5311     2.2319 C.3     
  27 C27           -2.6535    12.0384     1.2498 C.3     
  28 C28           -4.0476    11.7037     1.7839 C.3     
  29 C29           -0.6735     9.5079     3.3715 C.3     
  30 H30            1.3378    -0.4001     1.6241 H       
  31 H31           -1.3560     2.8108     2.4090 H       
  32 H32           -2.4639    -0.3029    -0.3046 H       
  33 H33           -4.0798     1.4155     0.6740 H       
  34 H34           -4.9780     3.6783    -0.5377 H       
  35 H35           -5.4271     3.6684     1.1847 H       
  36 H36           -3.9305     5.6247    -1.5375 H       
  37 H37           -3.6367     8.0671    -1.4513 H       
  38 H38           -4.7154     8.0433     2.6840 H       
  39 H39           -5.0125     5.6017     2.5881 H       
  40 H40           -0.5333    -2.6125     0.4911 H       
  41 H41           -0.7164    -1.7952    -1.0795 H       
  42 H42            0.8715    -1.8341    -0.2763 H       
  43 H43            1.7443     2.5578     2.4997 H       
  44 H44            0.5714     2.4303     3.8325 H       
  45 H45            1.6955     1.0896     3.5049 H       
  46 H46           -7.4459     9.5017     2.0006 H       
  47 H47           -3.2685    10.1606     3.8915 H       
  48 H48           -3.2219     8.6006     3.0356 H       
  49 H49           -1.5882     9.5352     1.4212 H       
  50 H50           -1.7388    12.0111     3.2000 H       
  51 H51           -0.6025    11.7695     1.8514 H       
  52 H52           -2.5570    13.1183     1.1376 H       
  53 H53           -2.5104    11.5584     0.2817 H       
  54 H54           -4.8012    12.0652     1.0842 H       
  55 H55           -4.1907    12.1838     2.7519 H       
  56 H56           -0.7700     8.4280     3.4836 H       
  57 H57            0.3197     9.7463     2.9910 H       
  58 H58           -0.8166     9.9879     4.3396 H       
@<TRIPOS>BOND
   1    1    2 ar
   2    1   20 1
   3    1    6 ar
   4    2    3 ar
   5    2   30 1
   6    3    4 ar
   7    3   21 1
   8    4    5 ar
   9    4   31 1
  10    5    6 ar
  11    5    7 1
  12    6   32 1
  13    7    8 am
  14    7   33 1
  15    8    9 1
  16    8   10 2
  17    9   11 1
  18    9   34 1
  19    9   35 1
  20   11   12 ar
  21   11   16 ar
  22   12   13 ar
  23   12   36 1
  24   13   14 ar
  25   13   37 1
  26   14   15 ar
  27   14   17 1
  28   15   16 ar
  29   15   38 1
  30   16   39 1
  31   17   18 1
  32   18   19 1
  33   18   24 1
  34   18   28 1
  35   19   22 2
  36   19   23 1
  37   20   40 1
  38   20   41 1
  39   20   42 1
  40   21   43 1
  41   21   44 1
  42   21   45 1
  43   23   46 1
  44   24   25 1
  45   24   47 1
  46   24   48 1
  47   25   26 1
  48   25   29 1
  49   25   49 1
  50   26   27 1
  51   26   50 1
  52   26   51 1
  53   27   28 1
  54   27   52 1
  55   27   53 1
  56   28   54 1
  57   28   55 1
  58   29   56 1
  59   29   57 1
  60   29   58 1

#	End of record

