#	Name: ASD03731268
#	Creating user name:	WinNT
#	Creation time:	15. 06. 2019 20:45

#	Modifying user name:	WinNT
#	Modification time:	15. 06. 2019 20:45

#	Program:	/corina/corina34_cracker 3.40 0067  02.08.2006

@<TRIPOS>MOLECULE
ASD03731268
  59   64    0    0    0
SMALL
NO_CHARGES


@<TRIPOS>ATOM
   1 N1            -0.0162     1.3436     0.0094 N.am    
   2 C2             0.0547     0.0128     0.2105 C.2     
   3 O3             1.1381    -0.5301     0.3102 O.2     
   4 N4            -1.0752    -0.7163     0.3010 N.am    
   5 C5            -0.9981    -2.1628     0.5196 C.3     
   6 C6            -2.4116    -2.7450     0.5833 C.3     
   7 O7             2.5439    -7.0740     3.4807 O.3     
   8 C8             3.0135    -8.3599     3.9267 C.3     
   9 O9             1.8489    -8.9621     4.5216 O.3     
  10 C10            0.7801    -8.3962     3.8873 C.ar    
  11 C11            1.2079    -7.2347     3.2483 C.ar    
  12 C12           -0.5447    -8.7851     3.8013 C.ar    
  13 C13           -1.4582    -8.0219     3.0804 C.ar    
  14 C14           -1.0207    -6.8593     2.4533 C.ar    
  15 C15            0.3008    -6.4721     2.5320 C.ar    
  16 O16           -2.7873    -8.2328     2.8584 O.3     
  17 C17           -2.2268    -6.2498     1.7900 C.3     
  18 C18           -3.4000    -6.9992     2.4361 C.3     
  19 N19           -2.3344    -4.1916     0.8019 N.am    
  20 C20           -2.3139    -4.7685     2.0200 C.2     
  21 C21           -2.2062    -6.4205     0.3000 C.ar    
  22 C22           -2.1386    -7.5162    -0.5313 C.ar    
  23 C23           -2.1393    -7.3456    -1.9042 C.ar    
  24 C24           -2.2074    -6.0721    -2.4395 C.ar    
  25 C25           -2.2742    -4.9714    -1.6110 C.ar    
  26 C26           -2.2745    -5.1337    -0.2278 C.ar    
  27 O27           -2.3576    -4.2022     3.0917 O.2     
  28 C28            1.1518     2.1151     0.0127 C.ar    
  29 C29            2.3268     1.5950    -0.5056 C.ar    
  30 C30            3.4899     2.3695    -0.4999 C.ar    
  31 C31            3.4585     3.6641     0.0292 C.ar    
  32 C32            2.2826     4.1703     0.5420 C.ar    
  33 C33            1.1309     3.4047     0.5306 C.ar    
  34 C34            4.7429     1.8253    -1.0478 C.2     
  35 O35            4.7674     0.7027    -1.5054 O.2     
  36 C36            5.9953     2.6633    -1.0400 C.3     
  37 H37           -0.8762     1.7661    -0.1415 H       
  38 H38           -1.9395    -0.2832     0.2215 H       
  39 H39           -0.4512    -2.6257    -0.3018 H       
  40 H40           -0.4807    -2.3614     1.4582 H       
  41 H41           -2.9585    -2.2821     1.4047 H       
  42 H42           -2.9290    -2.5465    -0.3553 H       
  43 H43            3.3628    -8.9540     3.0822 H       
  44 H44            3.8047    -8.2429     4.6672 H       
  45 H45           -0.8722    -9.6870     4.2970 H       
  46 H46            0.6288    -5.5717     2.0340 H       
  47 H47           -4.1875    -7.1880     1.7065 H       
  48 H48           -3.7880    -6.4468     3.2919 H       
  49 H49           -2.0853    -8.5097    -0.1111 H       
  50 H50           -2.0872    -8.2048    -2.5565 H       
  51 H51           -2.2078    -5.9389    -3.5112 H       
  52 H52           -2.3266    -3.9801    -2.0364 H       
  53 H53            2.3438     0.5945    -0.9121 H       
  54 H54            4.3547     4.2667     0.0363 H       
  55 H55            2.2601     5.1698     0.9505 H       
  56 H56            0.2124     3.8090     0.9298 H       
  57 H57            5.7802     3.6341    -0.5934 H       
  58 H58            6.7666     2.1586    -0.4582 H       
  59 H59            6.3451     2.8035    -2.0628 H       
@<TRIPOS>BOND
   1    1    2 am
   2    1   28 1
   3    1   37 1
   4    2    3 2
   5    2    4 am
   6    4    5 1
   7    4   38 1
   8    5    6 1
   9    5   39 1
  10    5   40 1
  11    6   19 1
  12    6   41 1
  13    6   42 1
  14    7    8 1
  15    7   11 1
  16    8    9 1
  17    8   43 1
  18    8   44 1
  19    9   10 1
  20   10   11 ar
  21   10   12 ar
  22   11   15 ar
  23   12   13 ar
  24   12   45 1
  25   13   14 ar
  26   13   16 1
  27   14   15 ar
  28   14   17 1
  29   15   46 1
  30   16   18 1
  31   17   18 1
  32   17   20 1
  33   17   21 1
  34   18   47 1
  35   18   48 1
  36   19   20 am
  37   19   26 1
  38   20   27 2
  39   21   22 ar
  40   21   26 ar
  41   22   23 ar
  42   22   49 1
  43   23   24 ar
  44   23   50 1
  45   24   25 ar
  46   24   51 1
  47   25   26 ar
  48   25   52 1
  49   28   29 ar
  50   28   33 ar
  51   29   30 ar
  52   29   53 1
  53   30   31 ar
  54   30   34 1
  55   31   32 ar
  56   31   54 1
  57   32   33 ar
  58   32   55 1
  59   33   56 1
  60   34   35 2
  61   34   36 1
  62   36   57 1
  63   36   58 1
  64   36   59 1

#	End of record

