#	Name: ASD01410923
#	Creating user name:	WinNT
#	Creation time:	15. 06. 2019 19:19

#	Modifying user name:	WinNT
#	Modification time:	15. 06. 2019 19:19

#	Program:	/corina/corina34_cracker 3.40 0067  02.08.2006

@<TRIPOS>MOLECULE
ASD01410923
  64   66    0    0    0
SMALL
NO_CHARGES


@<TRIPOS>ATOM
   1 S1             1.4860     1.8795    -1.0629 S.3     
   2 C2             2.4194     0.3897    -1.0460 C.2     
   3 C3             1.7019    -0.5982    -0.4126 C.2     
   4 C4             0.4675    -0.2012     0.0418 C.2     
   5 C5             0.1588     1.1043    -0.2100 C.2     
   6 C6            -1.0646     1.7471     0.1653 C.1     
   7 C7            -2.0675     2.2741     0.4729 C.1     
   8 C8            -3.3250     2.9348     0.8587 C.3     
   9 C9            -4.2267     1.9326     1.5821 C.3     
  10 C10           -3.0190     4.1099     1.7896 C.3     
  11 C11            3.7107     0.2311    -1.5997 C.2     
  12 N12            2.1871    -1.8961    -0.2461 N.am    
  13 O13            4.2857     1.2494    -2.2741 O.3     
  14 O14            4.3039    -0.8237    -1.4682 O.2     
  15 C15            3.0551    -2.2133     0.8906 C.3     
  16 C16            1.8570    -2.8576    -1.1309 C.2     
  17 C17            2.3036    -4.2785    -0.9012 C.3     
  18 O18            1.2006    -2.5794    -2.1121 O.2     
  19 C19            2.2082    -2.5360     2.0947 C.2     
  20 C20            2.3511    -5.0206    -2.2383 C.3     
  21 C21            2.8045    -6.4632    -2.0051 C.3     
  22 C22            1.8177    -7.1628    -1.0683 C.3     
  23 C23            1.7702    -6.4206     0.2688 C.3     
  24 C24            1.3168    -4.9781     0.0356 C.3     
  25 C25            2.2711    -8.6053    -0.8350 C.3     
  26 N26            2.7888    -2.9764     3.2285 N.am    
  27 O27            1.0042    -2.3994     2.0434 O.2     
  28 C28           -4.0364     3.4488    -0.3945 C.3     
  29 C29            2.3290    -3.3822     4.5651 C.3     
  30 C30            4.1604    -3.2688     3.6713 C.3     
  31 C31            3.7021    -2.9605     5.1062 C.3     
  32 O32            3.7901    -1.5815     5.4704 O.3     
  33 H33           -0.2058    -0.8698     0.5576 H       
  34 H34           -3.7199     1.5664     2.4750 H       
  35 H35           -5.1579     2.4219     1.8678 H       
  36 H36           -4.4447     1.0954     0.9190 H       
  37 H37           -2.3766     4.8239     1.2742 H       
  38 H38           -3.9502     4.5992     2.0752 H       
  39 H39           -2.5122     3.7437     2.6824 H       
  40 H40            5.1676     1.0469    -2.6152 H       
  41 H41            3.6778    -3.0731     0.6434 H       
  42 H42            3.6908    -1.3562     1.1127 H       
  43 H43            3.2958    -4.2790    -0.4499 H       
  44 H44            1.3589    -5.0201    -2.6896 H       
  45 H45            3.0541    -4.5222    -2.9057 H       
  46 H46            2.8384    -6.9919    -2.9577 H       
  47 H47            3.7967    -6.4637    -1.5538 H       
  48 H48            0.8255    -7.1622    -1.5196 H       
  49 H49            1.0672    -6.9190     0.9363 H       
  50 H50            2.7624    -6.4212     0.7202 H       
  51 H51            1.2830    -4.4493     0.9882 H       
  52 H52            0.3246    -4.9775    -0.4157 H       
  53 H53            3.2633    -8.6059    -0.3837 H       
  54 H54            1.5681    -9.1037    -0.1676 H       
  55 H55            2.3050    -9.1340    -1.7876 H       
  56 H56           -4.2544     2.6117    -1.0577 H       
  57 H57           -4.9676     3.9381    -0.1089 H       
  58 H58           -3.3940     4.1629    -0.9099 H       
  59 H59            1.5076    -2.7745     4.9446 H       
  60 H60            2.1379    -4.4518     4.6523 H       
  61 H61            4.4521    -4.3085     3.5228 H       
  62 H62            4.8994    -2.5645     3.2893 H       
  63 H63            4.1121    -3.6342     5.8586 H       
  64 H64            4.6563    -1.3191     5.8109 H       
@<TRIPOS>BOND
   1    1    2 1
   2    1    5 1
   3    2    3 2
   4    2   11 1
   5    3    4 1
   6    3   12 1
   7    4    5 2
   8    4   33 1
   9    5    6 1
  10    6    7 3
  11    7    8 1
  12    8    9 1
  13    8   10 1
  14    8   28 1
  15    9   34 1
  16    9   35 1
  17    9   36 1
  18   10   37 1
  19   10   38 1
  20   10   39 1
  21   11   13 1
  22   11   14 2
  23   12   15 1
  24   12   16 am
  25   13   40 1
  26   15   19 1
  27   15   41 1
  28   15   42 1
  29   16   18 2
  30   16   17 1
  31   17   20 1
  32   17   24 1
  33   17   43 1
  34   19   26 am
  35   19   27 2
  36   20   21 1
  37   20   44 1
  38   20   45 1
  39   21   22 1
  40   21   46 1
  41   21   47 1
  42   22   23 1
  43   22   25 1
  44   22   48 1
  45   23   24 1
  46   23   49 1
  47   23   50 1
  48   24   51 1
  49   24   52 1
  50   25   53 1
  51   25   54 1
  52   25   55 1
  53   26   29 1
  54   26   30 1
  55   28   56 1
  56   28   57 1
  57   28   58 1
  58   29   31 1
  59   29   59 1
  60   29   60 1
  61   30   31 1
  62   30   61 1
  63   30   62 1
  64   31   32 1
  65   31   63 1
  66   32   64 1

#	End of record

