#	Name: ASD01884785
#	Creating user name:	WinNT
#	Creation time:	15. 06. 2019 19:48

#	Modifying user name:	WinNT
#	Modification time:	15. 06. 2019 19:48

#	Program:	/corina/corina34_cracker 3.40 0067  02.08.2006

@<TRIPOS>MOLECULE
ASD01884785
  46   49    0    0    0
SMALL
NO_CHARGES


@<TRIPOS>ATOM
   1 C1            -0.4383     1.2687     0.2475 C.3     
   2 C2            -0.1566    -0.2338     0.1839 C.3     
   3 H3            -1.0901    -0.7845     0.2996 H       
   4 C4             0.4757    -0.5782    -1.1645 C.3     
   5 N5             1.0586    -1.9152    -1.1851 N.am    
   6 C6             1.7485    -2.4083    -0.1286 C.2     
   7 O7             2.4039    -3.4306    -0.2106 O.2     
   8 C8             1.6628    -1.6430     1.1186 C.2     
   9 C9             2.3585    -1.7471     2.3068 C.2     
  10 C10            1.8677    -0.7330     3.1594 C.2     
  11 N11            0.9337    -0.0652     2.5268 N.2     
  12 N12            0.7664    -0.6044     1.2589 N.pl3   
  13 C13            3.3811    -2.7008     2.6160 C.1     
  14 C14            4.2194    -3.4826     2.8695 C.1     
  15 C15            5.2419    -4.4363     3.1786 C.ar    
  16 C16            5.6366    -5.3910     2.2282 C.ar    
  17 C17            6.6262    -6.2884     2.5726 C.ar    
  18 C18            7.1971    -6.2190     3.8413 C.ar    
  19 N19            8.1936    -7.1191     4.1932 N.pl3   
  20 N20            6.8029    -5.3058     4.7170 N.ar    
  21 C21            5.8657    -4.4268     4.4284 C.ar    
  22 C22            0.9009    -2.7089    -2.3252 C.ar    
  23 C23            0.1213    -3.8571    -2.2712 C.ar    
  24 C24           -0.0334    -4.6394    -3.3992 C.ar    
  25 C25            0.5867    -4.2809    -4.5816 C.ar    
  26 C26            1.3646    -3.1372    -4.6394 C.ar    
  27 Cl27           2.1415    -2.6909    -6.1263 Cl      
  28 C28            1.5188    -2.3477    -3.5156 C.ar    
  29 C29            0.4161    -5.1371    -5.8099 C.3     
  30 F30           -0.4055    -6.2282    -5.5073 F       
  31 F31           -0.1715    -4.3793    -6.8286 F       
  32 F32            1.6668    -5.5986    -6.2341 F       
  33 H33            0.4957     1.8187     0.1318 H       
  34 H34           -1.1238     1.5441    -0.5540 H       
  35 H35           -0.8874     1.5138     1.2099 H       
  36 H36           -0.2892    -0.5153    -1.9386 H       
  37 H37            1.2565     0.1501    -1.3838 H       
  38 H38            2.2066    -0.5396     4.1665 H       
  39 H39            5.1766    -5.4225     1.2515 H       
  40 H40            6.9544    -7.0368     1.8664 H       
  41 H41            8.4876    -7.7902     3.5575 H       
  42 H42            8.5959    -7.0770     5.0748 H       
  43 H43            5.5736    -3.6945     5.1666 H       
  44 H44           -0.3634    -4.1383    -1.3480 H       
  45 H45           -0.6393    -5.5324    -3.3572 H       
  46 H46            2.1220    -1.4531    -3.5619 H       
@<TRIPOS>BOND
   1    1    2 1
   2    1   33 1
   3    1   34 1
   4    1   35 1
   5    2    3 1
   6    2   12 1
   7    2    4 1
   8    4    5 1
   9    4   36 1
  10    4   37 1
  11    5    6 am
  12    5   22 1
  13    6    7 2
  14    6    8 1
  15    8   12 1
  16    8    9 2
  17    9   10 1
  18    9   13 1
  19   10   11 2
  20   10   38 1
  21   11   12 1
  22   13   14 3
  23   14   15 1
  24   15   21 ar
  25   15   16 ar
  26   16   17 ar
  27   16   39 1
  28   17   18 ar
  29   17   40 1
  30   18   19 1
  31   18   20 ar
  32   19   41 1
  33   19   42 1
  34   20   21 ar
  35   21   43 1
  36   22   28 ar
  37   22   23 ar
  38   23   24 ar
  39   23   44 1
  40   24   25 ar
  41   24   45 1
  42   25   26 ar
  43   25   29 1
  44   26   27 1
  45   26   28 ar
  46   28   46 1
  47   29   30 1
  48   29   31 1
  49   29   32 1

#	End of record

