#	Name: ASD01040026
#	Creating user name:	WinNT
#	Creation time:	15. 06. 2019 18:58

#	Modifying user name:	WinNT
#	Modification time:	15. 06. 2019 18:58

#	Program:	/corina/corina34_cracker 3.40 0067  02.08.2006

@<TRIPOS>MOLECULE
ASD01040026
  33   35    0    0    0
SMALL
NO_CHARGES


@<TRIPOS>ATOM
   1 C1            -0.0221     1.7771     0.0118 C.2     
   2 C2            -1.3337     2.0616     0.0199 C.2     
   3 C3            -2.2693     0.9406     0.0185 C.2     
   4 O4            -3.1566     7.3696     0.0584 O.3     
   5 C5            -1.7546    -0.2990     0.0092 C.2     
   6 C6            -1.8153     3.4638     0.0304 C.ar    
   7 C7            -3.7350     1.1634     0.0275 C.ar    
   8 C8            -1.7407     4.2201     1.2008 C.ar    
   9 C9            -2.1896     5.5252     1.2064 C.ar    
  10 S10            0.0021    -0.0041     0.0020 S.o2    
  11 O11           -7.8178     1.7841     0.0539 O.3     
  12 C12           -2.7150     6.0847     0.0497 C.ar    
  13 C13           -2.7909     5.3341    -1.1160 C.ar    
  14 C14           -2.3385     4.0316    -1.1305 C.ar    
  15 C15           -4.4796     0.9662    -1.1361 C.ar    
  16 C16           -5.8439     1.1743    -1.1235 C.ar    
  17 C17           -6.4746     1.5796     0.0447 C.ar    
  18 O18            0.5233    -0.4362     1.2514 O.2     
  19 C19           -5.7360     1.7770     1.2038 C.ar    
  20 C20           -4.3735     1.5650     1.2001 C.ar    
  21 O21            0.5003    -0.4227    -1.2612 O.2     
  22 Cl22          -1.0847     3.5203     2.6477 Cl      
  23 Cl23          -3.6908     0.4604    -2.5975 Cl      
  24 H24            0.8140     2.4607     0.0075 H       
  25 H25           -4.0901     7.4631     0.2926 H       
  26 H26           -2.2776    -1.2440     0.0072 H       
  27 H27           -2.1324     6.1115     2.1115 H       
  28 H28           -8.3337     0.9984     0.2811 H       
  29 H29           -3.2009     5.7724    -2.0139 H       
  30 H30           -2.3980     3.4488    -2.0378 H       
  31 H31           -6.4212     1.0220    -2.0235 H       
  32 H32           -6.2300     2.0931     2.1108 H       
  33 H33           -3.8000     1.7189     2.1022 H       
@<TRIPOS>BOND
   1    1   10 1
   2    1   24 1
   3    1    2 2
   4    2    3 1
   5    2    6 1
   6    3    5 2
   7    3    7 1
   8    4   12 1
   9    4   25 1
  10    5   10 1
  11    5   26 1
  12    6    8 ar
  13    6   14 ar
  14    7   15 ar
  15    7   20 ar
  16    8   22 1
  17    8    9 ar
  18    9   27 1
  19    9   12 ar
  20   10   21 2
  21   10   18 2
  22   11   17 1
  23   11   28 1
  24   12   13 ar
  25   13   14 ar
  26   13   29 1
  27   14   30 1
  28   15   23 1
  29   15   16 ar
  30   16   31 1
  31   16   17 ar
  32   17   19 ar
  33   19   20 ar
  34   19   32 1
  35   20   33 1

#	End of record

