#	Name: ASD01914995
#	Creating user name:	WinNT
#	Creation time:	15. 06. 2019 20:04

#	Modifying user name:	WinNT
#	Modification time:	15. 06. 2019 20:04

#	Program:	/corina/corina34_cracker 3.40 0067  02.08.2006

@<TRIPOS>MOLECULE
ASD01914995
  36   38    0    0    0
SMALL
NO_CHARGES


@<TRIPOS>ATOM
   1 N1            -0.0158     1.3168     0.0093 N.ar    
   2 C2             0.0021    -0.0041     0.0020 C.ar    
   3 C3             1.1954    -0.7081    -0.0122 C.ar    
   4 C4             2.3915    -0.0108    -0.0190 C.ar    
   5 C5             2.3359     1.3839    -0.0115 C.ar    
   6 C6             3.5650     2.2025    -0.0170 C.2     
   7 N7             3.4903     3.4988     0.3478 N.am    
   8 C8             2.2308     4.0824     0.8019 C.3     
   9 C9             1.0509     3.5295     0.0064 C.3     
  10 C10            1.0945     2.0235     0.0025 C.ar    
  11 O11            4.6290     1.7149    -0.3454 O.2     
  12 C12            4.6917     4.3349     0.2873 C.3     
  13 C13            4.7868     4.9800    -1.0714 C.ar    
  14 C14            4.1989     6.2116    -1.2933 C.ar    
  15 C15            4.2847     6.8050    -2.5378 C.ar    
  16 C16            4.9614     6.1641    -3.5654 C.ar    
  17 C17            5.5504     4.9284    -3.3402 C.ar    
  18 C18            5.4666     4.3418    -2.0923 C.ar    
  19 O19            5.0468     6.7456    -4.7908 O.3     
  20 C20            5.7589     6.0284    -5.8010 C.3     
  21 Cl21          -1.4995    -0.8752     0.0110 Cl      
  22 H22            1.1926    -1.7881    -0.0176 H       
  23 H23            3.3384    -0.5300    -0.0294 H       
  24 H24            2.0898     3.8516     1.8578 H       
  25 H25            2.2719     5.1642     0.6755 H       
  26 H26            0.1188     3.8632     0.4625 H       
  27 H27            1.1020     3.8961    -1.0188 H       
  28 H28            4.6352     5.1082     1.0535 H       
  29 H29            5.5733     3.7173     0.4588 H       
  30 H30            3.6719     6.7100    -0.4931 H       
  31 H31            3.8251     7.7669    -2.7108 H       
  32 H32            6.0778     4.4274    -4.1386 H       
  33 H33            5.9291     3.3820    -1.9151 H       
  34 H34            6.7883     5.8722    -5.4786 H       
  35 H35            5.2799     5.0635    -5.9675 H       
  36 H36            5.7515     6.6023    -6.7277 H       
@<TRIPOS>BOND
   1    1    2 ar
   2    1   10 ar
   3    2    3 ar
   4    2   21 1
   5    3    4 ar
   6    3   22 1
   7    4    5 ar
   8    4   23 1
   9    5    6 1
  10    5   10 ar
  11    6    7 am
  12    6   11 2
  13    7    8 1
  14    7   12 1
  15    8    9 1
  16    8   24 1
  17    8   25 1
  18    9   10 1
  19    9   26 1
  20    9   27 1
  21   12   13 1
  22   12   28 1
  23   12   29 1
  24   13   14 ar
  25   13   18 ar
  26   14   15 ar
  27   14   30 1
  28   15   16 ar
  29   15   31 1
  30   16   17 ar
  31   16   19 1
  32   17   18 ar
  33   17   32 1
  34   18   33 1
  35   19   20 1
  36   20   34 1
  37   20   35 1
  38   20   36 1

#	End of record

