#	Name: ASD01948083
#	Creating user name:	WinNT
#	Creation time:	15. 06. 2019 20:13

#	Modifying user name:	WinNT
#	Modification time:	15. 06. 2019 20:13

#	Program:	/corina/corina34_cracker 3.40 0067  02.08.2006

@<TRIPOS>MOLECULE
ASD01948083
  34   36    0    0    0
SMALL
NO_CHARGES


@<TRIPOS>ATOM
   1 C1            -0.0605     1.2898    -0.0614 C.2     
   2 C2             0.0116    -0.0922    -0.0373 C.2     
   3 C3             1.2588    -0.7326    -0.0422 C.2     
   4 C4             2.4025     0.0587    -0.0716 C.2     
   5 C5             2.2807     1.4369    -0.0950 C.2     
   6 N6             1.0627     2.0563    -0.0901 N.am    
   7 S7            -1.4995     2.3209    -0.0684 S.3     
   8 C8             0.8653     3.5051    -0.1137 C.3     
   9 C9            -0.6079     3.9036    -0.1037 C.3     
  10 O10            3.2935     2.1211    -0.1207 O.2     
  11 C11            3.7668    -0.5815    -0.0775 C.3     
  12 N12            1.3497    -2.1169    -0.0178 N.pl3   
  13 C13            0.8135    -2.8344     1.0569 C.ar    
  14 C14            0.7909    -4.2251     1.0248 C.ar    
  15 C15            0.2605    -4.9303     2.0890 C.ar    
  16 C16           -0.2473    -4.2538     3.1841 C.ar    
  17 C17           -0.2257    -2.8715     3.2179 C.ar    
  18 C18            0.3081    -2.1605     2.1601 C.ar    
  19 I19           -1.0514    -5.3262     4.7943 I       
  20 F20            1.2859    -4.8853    -0.0449 F       
  21 N21           -1.1723    -0.8579    -0.0073 N.pl3   
  22 H22            1.3544     3.9407     0.7576 H       
  23 H23            1.3311     3.9087    -1.0127 H       
  24 H24           -0.8550     4.4604    -1.0075 H       
  25 H25           -0.8409     4.4923     0.7836 H       
  26 H26            4.0824    -0.7548    -1.1064 H       
  27 H27            4.4803     0.0791     0.4150 H       
  28 H28            3.7245    -1.5319     0.4545 H       
  29 H29            1.7851    -2.5872    -0.7460 H       
  30 H30            0.2423    -6.0099     2.0656 H       
  31 H31           -0.6230    -2.3469     4.0743 H       
  32 H32            0.3280    -1.0811     2.1898 H       
  33 H33           -2.0329    -0.4176     0.0728 H       
  34 H34           -1.1260    -1.8250    -0.0668 H       
@<TRIPOS>BOND
   1    1    2 2
   2    1    6 1
   3    1    7 1
   4    2    3 1
   5    2   21 1
   6    3    4 2
   7    3   12 1
   8    4    5 1
   9    4   11 1
  10    5    6 am
  11    5   10 2
  12    6    8 1
  13    7    9 1
  14    8    9 1
  15    8   22 1
  16    8   23 1
  17    9   24 1
  18    9   25 1
  19   11   26 1
  20   11   27 1
  21   11   28 1
  22   12   13 1
  23   12   29 1
  24   13   14 ar
  25   13   18 ar
  26   14   15 ar
  27   14   20 1
  28   15   16 ar
  29   15   30 1
  30   16   17 ar
  31   16   19 1
  32   17   18 ar
  33   17   31 1
  34   18   32 1
  35   21   33 1
  36   21   34 1

#	End of record

