#	Name: ASD01913599
#	Creating user name:	WinNT
#	Creation time:	15. 06. 2019 20:01

#	Modifying user name:	WinNT
#	Modification time:	15. 06. 2019 20:01

#	Program:	/corina/corina34_cracker 3.40 0067  02.08.2006

@<TRIPOS>MOLECULE
ASD01913599
  45   47    0    0    0
SMALL
NO_CHARGES


@<TRIPOS>ATOM
   1 C1            -4.0399     0.3660    -0.7760 C.ar    
   2 C2            -3.2947    -0.1298     0.2890 C.ar    
   3 C3            -3.8823    -0.1544     1.5497 C.ar    
   4 N4            -5.1198     0.2913     1.6901 N.ar    
   5 C5            -5.7936     0.7536     0.6561 C.ar    
   6 N6            -5.2719     0.7933    -0.5535 N.ar    
   7 C7            -1.8272    -1.9201     0.0386 C.ar    
   8 C8            -0.5415    -2.4478    -0.0417 C.ar    
   9 C9            -0.3755    -3.8200    -0.0996 C.ar    
  10 N10           -1.4131    -4.6291    -0.0803 N.ar    
  11 C11           -2.6573    -4.1698    -0.0045 C.ar    
  12 C12           -2.9048    -2.8025     0.0575 C.ar    
  13 C13           -3.7914    -5.1224     0.0140 C.2     
  14 N14           -3.5586    -6.4485    -0.0458 N.am    
  15 O15           -2.0256    -0.5789     0.1024 O.3     
  16 O16           -4.9318    -4.7082     0.0832 O.2     
  17 C17           -4.6219    -7.3417    -0.0284 C.2     
  18 S18           -4.4727    -9.0434    -0.0981 S.3     
  19 C19           -6.2247    -9.2108    -0.0203 C.2     
  20 C20           -6.7545    -7.9879     0.0501 C.2     
  21 N21           -5.8720    -7.0066     0.0487 N.2     
  22 C22           -8.2401    -7.7473     0.1297 C.3     
  23 C23           -6.9913   -10.5082    -0.0317 C.3     
  24 C24           -7.7970   -10.6132    -1.3281 C.3     
  25 C25           -6.0117   -11.6802     0.0563 C.3     
  26 C26           -7.9435   -10.5485     1.1652 C.3     
  27 H27           -3.6172     0.4056    -1.7690 H       
  28 H28           -3.3361    -0.5322     2.4014 H       
  29 H29           -6.8022     1.1101     0.8042 H       
  30 H30            0.3171    -1.7929    -0.0589 H       
  31 H31            0.6203    -4.2333    -0.1620 H       
  32 H32           -3.9169    -2.4306     0.1188 H       
  33 H33           -2.6484    -6.7792    -0.1011 H       
  34 H34           -8.5394    -7.6654     1.1746 H       
  35 H35           -8.4869    -6.8228    -0.3925 H       
  36 H36           -8.7684    -8.5795    -0.3355 H       
  37 H37           -7.1151   -10.7145    -2.1725 H       
  38 H38           -8.4491   -11.4854    -1.2811 H       
  39 H39           -8.4007    -9.7145    -1.4545 H       
  40 H40           -5.4377   -11.6054     0.9799 H       
  41 H41           -6.5661   -12.6186     0.0481 H       
  42 H42           -5.3333   -11.6515    -0.7964 H       
  43 H43           -8.6414    -9.7136     1.1025 H       
  44 H44           -8.4980   -11.4869     1.1569 H       
  45 H45           -7.3696   -10.4737     2.0888 H       
@<TRIPOS>BOND
   1    1    2 ar
   2    1    6 ar
   3    1   27 1
   4    2    3 ar
   5    2   15 1
   6    3    4 ar
   7    3   28 1
   8    4    5 ar
   9    5    6 ar
  10    5   29 1
  11    7    8 ar
  12    7   12 ar
  13    7   15 1
  14    8    9 ar
  15    8   30 1
  16    9   10 ar
  17    9   31 1
  18   10   11 ar
  19   11   12 ar
  20   11   13 1
  21   12   32 1
  22   13   14 am
  23   13   16 2
  24   14   17 1
  25   14   33 1
  26   17   18 1
  27   17   21 2
  28   18   19 1
  29   19   20 2
  30   19   23 1
  31   20   21 1
  32   20   22 1
  33   22   34 1
  34   22   35 1
  35   22   36 1
  36   23   24 1
  37   23   25 1
  38   23   26 1
  39   24   37 1
  40   24   38 1
  41   24   39 1
  42   25   40 1
  43   25   41 1
  44   25   42 1
  45   26   43 1
  46   26   44 1
  47   26   45 1

#	End of record

