#	Name: ASD01884781
#	Creating user name:	WinNT
#	Creation time:	15. 06. 2019 19:48

#	Modifying user name:	WinNT
#	Modification time:	15. 06. 2019 19:48

#	Program:	/corina/corina34_cracker 3.40 0067  02.08.2006

@<TRIPOS>MOLECULE
ASD01884781
  41   44    0    0    0
SMALL
NO_CHARGES


@<TRIPOS>ATOM
   1 O1            -0.0162     1.3429     0.0094 O.3     
   2 C2             0.0021    -0.0041     0.0020 C.2     
   3 O3             1.0621    -0.5970    -0.0113 O.2     
   4 C4            -1.2672    -0.7601     0.0101 C.ar    
   5 C5            -2.4872    -0.0802     0.0195 C.ar    
   6 C6            -3.6732    -0.7867     0.0270 C.ar    
   7 C7            -3.6612    -2.1679     0.0248 C.ar    
   8 C8            -2.4496    -2.8585     0.0149 C.ar    
   9 C9            -1.2505    -2.1546     0.0024 C.ar    
  10 C10           -2.4402    -4.3426     0.0126 C.ar    
  11 C11           -1.2295    -5.0331     0.0085 C.ar    
  12 C12           -1.2194    -6.4143     0.0058 C.ar    
  13 C13           -2.4071    -7.1185     0.0071 C.ar    
  14 C14           -3.6238    -6.4382     0.0112 C.ar    
  15 C15           -3.6401    -5.0474     0.0202 C.ar    
  16 C16           -4.9001    -7.1969     0.0122 C.2     
  17 C17           -5.0535    -8.6042     0.1141 C.2     
  18 C18           -6.4063    -8.7895     0.0673 C.2     
  19 O19           -6.9526    -7.5662    -0.0520 O.3     
  20 N20           -6.1098    -6.7000    -0.0751 N.2     
  21 C21           -7.1268   -10.0790     0.1337 C.ar    
  22 C22           -6.4160   -11.2730     0.2631 C.ar    
  23 C23           -7.0943   -12.4728     0.3250 C.ar    
  24 C24           -8.4761   -12.4939     0.2589 C.ar    
  25 C25           -9.1867   -11.3137     0.1306 C.ar    
  26 C26           -8.5207   -10.1068     0.0729 C.ar    
  27 H27            0.8393     1.7936     0.0037 H       
  28 H28           -2.5028     0.9996     0.0213 H       
  29 H29           -4.6145    -0.2572     0.0351 H       
  30 H30           -4.5926    -2.7145     0.0311 H       
  31 H31           -0.3102    -2.6855    -0.0094 H       
  32 H32           -0.2976    -4.4872     0.0070 H       
  33 H33           -0.2790    -6.9454     0.0022 H       
  34 H34           -2.3934    -8.1985     0.0047 H       
  35 H35           -4.5805    -4.5164     0.0279 H       
  36 H36           -4.2812    -9.3536     0.2066 H       
  37 H37           -5.3373   -11.2579     0.3144 H       
  38 H38           -6.5455   -13.3976     0.4248 H       
  39 H39           -9.0024   -13.4358     0.3074 H       
  40 H40          -10.2652   -11.3370     0.0792 H       
  41 H41           -9.0767    -9.1859    -0.0228 H       
@<TRIPOS>BOND
   1    1    2 1
   2    1   27 1
   3    2    3 2
   4    2    4 1
   5    4    9 ar
   6    4    5 ar
   7    5    6 ar
   8    5   28 1
   9    6    7 ar
  10    6   29 1
  11    7    8 ar
  12    7   30 1
  13    8    9 ar
  14    8   10 1
  15    9   31 1
  16   10   15 ar
  17   10   11 ar
  18   11   12 ar
  19   11   32 1
  20   12   13 ar
  21   12   33 1
  22   13   14 ar
  23   13   34 1
  24   14   15 ar
  25   14   16 1
  26   15   35 1
  27   16   20 2
  28   16   17 1
  29   17   18 2
  30   17   36 1
  31   18   19 1
  32   18   21 1
  33   19   20 1
  34   21   26 ar
  35   21   22 ar
  36   22   23 ar
  37   22   37 1
  38   23   24 ar
  39   23   38 1
  40   24   25 ar
  41   24   39 1
  42   25   26 ar
  43   25   40 1
  44   26   41 1

#	End of record

