#	Name: ASD04880161
#	Creating user name:	WinNT
#	Creation time:	15. 06. 2019 20:52

#	Modifying user name:	WinNT
#	Modification time:	15. 06. 2019 20:52

#	Program:	/corina/corina34_cracker 3.40 0067  02.08.2006

@<TRIPOS>MOLECULE
ASD04880161
  39   42    0    0    0
SMALL
NO_CHARGES


@<TRIPOS>ATOM
   1 C1            -0.0163     1.3917    -0.0059 C.ar    
   2 C2            -1.2375     2.0676     0.0493 C.ar    
   3 C3            -2.4187     1.3580     0.0427 C.ar    
   4 C4            -2.4005    -0.0287    -0.0187 C.ar    
   5 C5            -1.1835    -0.7102    -0.0746 C.ar    
   6 C6             0.0033    -0.0043    -0.0741 C.ar    
   7 O7            -3.4119    -0.9432    -0.0373 O.3     
   8 C8            -2.8190    -2.1640    -0.5177 C.3     
   9 O9            -1.4374    -2.0507    -0.1286 O.3     
  10 C10            1.2497     2.1497     0.0017 C.2     
  11 N11            2.4256     1.4968     0.0887 N.am    
  12 O12            1.2321     3.3637    -0.0706 O.2     
  13 N13            2.5788     0.1263     0.2882 N.2     
  14 C14            3.8056    -0.2647     0.3365 C.2     
  15 C15            4.7221     0.9242     0.1558 C.3     
  16 C16            3.7572     2.1139    -0.0178 C.3     
  17 C17            4.2475    -1.6567     0.5378 C.ar    
  18 C18            5.6073    -1.9704     0.5742 C.ar    
  19 C19            3.3084    -2.6853     0.7013 C.ar    
  20 C20            3.7718    -3.9728     0.8868 C.ar    
  21 C21            5.1423    -4.2061     0.9053 C.ar    
  22 N22            6.0043    -3.2134     0.7535 N.ar    
  23 O23            5.6027    -5.4689     1.0872 O.3     
  24 C24            7.0205    -5.6474     1.0971 C.3     
  25 H25           -1.2559     3.1463     0.0975 H       
  26 H26           -3.3619     1.8824     0.0858 H       
  27 H27            0.9454    -0.5305    -0.1173 H       
  28 H28           -3.2815    -3.0280    -0.0404 H       
  29 H29           -2.9071    -2.2316    -1.6020 H       
  30 H30            5.3491     1.0610     1.0368 H       
  31 H31            5.3361     0.8015    -0.7364 H       
  32 H32            3.8937     2.5792    -0.9941 H       
  33 H33            3.9005     2.8434     0.7793 H       
  34 H34            6.3405    -1.1866     0.4540 H       
  35 H35            2.2491    -2.4756     0.6830 H       
  36 H36            3.0772    -4.7896     1.0165 H       
  37 H37            7.2529    -6.7012     1.2506 H       
  38 H38            7.4346    -5.3191     0.1437 H       
  39 H39            7.4553    -5.0580     1.9043 H       
@<TRIPOS>BOND
   1    1    2 ar
   2    1   10 1
   3    1    6 ar
   4    2    3 ar
   5    2   25 1
   6    3    4 ar
   7    3   26 1
   8    4    5 ar
   9    4    7 1
  10    5    6 ar
  11    5    9 1
  12    6   27 1
  13    7    8 1
  14    8    9 1
  15    8   28 1
  16    8   29 1
  17   10   11 am
  18   10   12 2
  19   11   13 1
  20   11   16 1
  21   13   14 2
  22   14   15 1
  23   14   17 1
  24   15   16 1
  25   15   30 1
  26   15   31 1
  27   16   32 1
  28   16   33 1
  29   17   18 ar
  30   17   19 ar
  31   18   22 ar
  32   18   34 1
  33   19   20 ar
  34   19   35 1
  35   20   21 ar
  36   20   36 1
  37   21   22 ar
  38   21   23 1
  39   23   24 1
  40   24   37 1
  41   24   38 1
  42   24   39 1

#	End of record

