#	Name: ASD01900243
#	Creating user name:	WinNT
#	Creation time:	15. 06. 2019 19:51

#	Modifying user name:	WinNT
#	Modification time:	15. 06. 2019 19:51

#	Program:	/corina/corina34_cracker 3.40 0067  02.08.2006

@<TRIPOS>MOLECULE
ASD01900243
  65   70    0    0    0
SMALL
NO_CHARGES


@<TRIPOS>ATOM
   1 C1             0.1438     0.8478    -0.2660 C.ar    
   2 C2             0.3234    -0.5051    -0.3010 C.ar    
   3 C3             1.6093    -1.0481    -0.4074 C.ar    
   4 C4             2.7239    -0.2091    -0.4703 C.ar    
   5 C5             2.5464     1.1595    -0.4283 C.ar    
   6 C6             1.2479     1.6980    -0.3366 C.ar    
   7 N7             3.6239     2.0384    -0.4686 N.pl3   
   8 C8             3.4243     3.3770    -1.0362 C.3     
   9 N9             2.1618     3.9449    -0.5626 N.am    
  10 C10            1.0957     3.1611    -0.3077 C.2     
  11 C11            4.5830     4.2833    -0.6106 C.3     
  12 C12            3.3996     3.2790    -2.5642 C.3     
  13 C13            3.2625     4.6831    -3.1575 C.3     
  14 N14            4.3930     5.5123    -2.7211 N.3     
  15 C15            4.4129     5.6586    -1.2600 C.3     
  16 C16            2.0596     5.3282    -0.3701 C.ar    
  17 C17            1.4047     6.1137    -1.3095 C.ar    
  18 C18            1.3044     7.4777    -1.1191 C.ar    
  19 C19            1.8580     8.0634     0.0100 C.ar    
  20 C20            2.5124     7.2793     0.9489 C.ar    
  21 C21            2.6082     5.9144     0.7629 C.ar    
  22 C22            2.3525     9.9424     1.3811 C.3     
  23 O23            1.7596     9.4067     0.1964 O.3     
  24 C24            4.3693     6.8244    -3.3813 C.3     
  25 C25            5.4783     7.6837    -2.8311 C.ar    
  26 C26            6.7579     7.5705    -3.3422 C.ar    
  27 C27            7.7767     8.3591    -2.8375 C.ar    
  28 C28            7.5126     9.2627    -1.8190 C.ar    
  29 C29            6.2308     9.3736    -1.3097 C.ar    
  30 C30            5.2139     8.5882    -1.8200 C.ar    
  31 F31            8.5058    10.0335    -1.3244 F       
  32 F32            9.0275     8.2488    -3.3361 F       
  33 O33            0.0152     3.6598    -0.0547 O.2     
  34 C34            1.7877    -2.5123    -0.4527 C.2     
  35 C35            0.7934    -3.4403    -0.4001 C.2     
  36 C36            1.4128    -4.7026    -0.4733 C.2     
  37 C37            2.7405    -4.4867    -0.5661 C.2     
  38 O38            2.9626    -3.1629    -0.5592 O.3     
  39 H39           -0.8517     1.2594    -0.1883 H       
  40 H40           -0.5328    -1.1612    -0.2458 H       
  41 H41            3.7164    -0.6272    -0.5508 H       
  42 H42            4.4917     1.7713    -0.1272 H       
  43 H43            4.5820     4.3904     0.4741 H       
  44 H44            5.5267     3.8430    -0.9326 H       
  45 H45            4.3262     2.8245    -2.9148 H       
  46 H46            2.5527     2.6677    -2.8761 H       
  47 H47            3.2580     4.6188    -4.2456 H       
  48 H48            2.3297     5.1321    -2.8164 H       
  49 H49            3.4755     6.1041    -0.9269 H       
  50 H50            5.2437     6.3022    -0.9707 H       
  51 H51            0.9742     5.6580    -2.1889 H       
  52 H52            0.7951     8.0888    -1.8496 H       
  53 H53            2.9435     7.7360     1.8275 H       
  54 H54            3.1135     5.3034     1.4963 H       
  55 H55            1.8869     9.4904     2.2568 H       
  56 H56            3.4204     9.7238     1.3838 H       
  57 H57            2.2026    11.0218     1.4063 H       
  58 H58            4.5091     6.6937    -4.4544 H       
  59 H59            3.4097     7.3070    -3.1960 H       
  60 H60            6.9624     6.8662    -4.1350 H       
  61 H61            6.0240    10.0766    -0.5164 H       
  62 H62            4.2127     8.6783    -1.4251 H       
  63 H63           -0.2657    -3.2459    -0.3175 H       
  64 H64            0.9180    -5.6624    -0.4575 H       
  65 H65            3.4991    -5.2520    -0.6386 H       
@<TRIPOS>BOND
   1    1    2 ar
   2    1    6 ar
   3    1   39 1
   4    2    3 ar
   5    2   40 1
   6    3    4 ar
   7    3   34 1
   8    4    5 ar
   9    4   41 1
  10    5    7 1
  11    5    6 ar
  12    6   10 1
  13    7    8 1
  14    7   42 1
  15    8    9 1
  16    8   12 1
  17    8   11 1
  18    9   10 am
  19    9   16 1
  20   10   33 2
  21   11   15 1
  22   11   43 1
  23   11   44 1
  24   12   13 1
  25   12   45 1
  26   12   46 1
  27   13   14 1
  28   13   47 1
  29   13   48 1
  30   14   15 1
  31   14   24 1
  32   15   49 1
  33   15   50 1
  34   16   17 ar
  35   16   21 ar
  36   17   18 ar
  37   17   51 1
  38   18   19 ar
  39   18   52 1
  40   19   20 ar
  41   19   23 1
  42   20   21 ar
  43   20   53 1
  44   21   54 1
  45   22   23 1
  46   22   55 1
  47   22   56 1
  48   22   57 1
  49   24   25 1
  50   24   58 1
  51   24   59 1
  52   25   26 ar
  53   25   30 ar
  54   26   27 ar
  55   26   60 1
  56   27   28 ar
  57   27   32 1
  58   28   29 ar
  59   28   31 1
  60   29   30 ar
  61   29   61 1
  62   30   62 1
  63   34   35 2
  64   34   38 1
  65   35   36 1
  66   35   63 1
  67   36   37 2
  68   36   64 1
  69   37   38 1
  70   37   65 1

#	End of record

