#	Name: ASD01885713
#	Creating user name:	WinNT
#	Creation time:	15. 06. 2019 19:50

#	Modifying user name:	WinNT
#	Modification time:	15. 06. 2019 19:50

#	Program:	/corina/corina34_cracker 3.40 0067  02.08.2006

@<TRIPOS>MOLECULE
ASD01885713
  58   61    0    0    0
SMALL
NO_CHARGES


@<TRIPOS>ATOM
   1 C1            -0.2992     2.6225    -0.7466 C.ar    
   2 C2             0.8633     3.4326    -0.7014 C.ar    
   3 C3             2.1267     2.8388    -0.9519 C.ar    
   4 C4             2.1616     1.4788    -1.2319 C.ar    
   5 C5             0.9679     0.7499    -1.2574 C.ar    
   6 N6            -0.1981     1.3217    -1.0218 N.ar    
   7 C7            -1.6297     4.5440    -0.2248 C.ar    
   8 C8            -0.4836     5.3353    -0.1772 C.ar    
   9 C9             0.7465     4.7983    -0.4123 C.ar    
  10 C10            3.3683     3.6428    -0.9165 C.ar    
  11 C11            1.0136    -0.7014    -1.5581 C.2     
  12 C12           -2.9752     5.1714     0.0344 C.3     
  13 C13           -1.5535     3.2145    -0.5030 C.ar    
  14 N14           -0.1265    -1.4195    -1.5883 N.am    
  15 O15            2.0788    -1.2432    -1.7772 O.2     
  16 N16           -3.2795     5.1004     1.4657 N.pl3   
  17 C17           -2.9679     6.0262     2.3981 C.2     
  18 N18           -3.4006     5.6138     3.5581 N.2     
  19 C19           -3.9980     4.4221     3.4093 C.2     
  20 C20           -3.9381     4.0859     2.1066 C.2     
  21 C21           -4.6303     3.6053     4.5066 C.3     
  22 O22           -3.9757     2.3381     4.5947 O.3     
  23 C23           -4.4905     4.3453     5.8384 C.3     
  24 C24           -6.1130     3.3929     4.1944 C.3     
  25 F25           -6.2394     2.6122     3.0404 F       
  26 F26           -6.7268     2.7399     5.2687 F       
  27 F27           -6.7285     4.6322     3.9887 F       
  28 C28           -3.0082     4.4845     6.1913 C.3     
  29 C29            4.1186     3.8233    -2.0796 C.ar    
  30 C30            5.2743     4.5726    -2.0431 C.ar    
  31 C31            5.6949     5.1488    -0.8506 C.ar    
  32 C32            4.9531     4.9730     0.3094 C.ar    
  33 C33            3.7902     4.2286     0.2805 C.ar    
  34 F34            3.0679     4.0573     1.4093 F       
  35 O35            6.8354     5.8857    -0.8198 O.3     
  36 C36            7.2098     6.4494     0.4388 C.3     
  37 H37            3.1032     0.9879    -1.4288 H       
  38 H38           -0.5718     6.3885     0.0451 H       
  39 H39            1.6271     5.4224    -0.3755 H       
  40 H40           -2.9567     6.2144    -0.2818 H       
  41 H41           -3.7404     4.6351    -0.5268 H       
  42 H42           -2.4515     2.6155    -0.5373 H       
  43 H43           -0.9770    -0.9870    -1.4134 H       
  44 H44           -0.0967    -2.3689    -1.7850 H       
  45 H45           -2.4463     6.9539     2.2143 H       
  46 H46           -4.3284     3.1856     1.6555 H       
  47 H47           -3.0306     2.3964     4.7909 H       
  48 H48           -4.9381     5.3354     5.7527 H       
  49 H49           -4.9991     3.7831     6.6216 H       
  50 H50           -2.5854     3.4978     6.3800 H       
  51 H51           -2.4797     4.9537     5.3615 H       
  52 H52           -2.9036     5.1014     7.0839 H       
  53 H53            3.7938     3.3757    -3.0073 H       
  54 H54            5.8547     4.7121    -2.9432 H       
  55 H55            5.2833     5.4224     1.2343 H       
  56 H56            6.4209     7.1159     0.7875 H       
  57 H57            7.3578     5.6503     1.1652 H       
  58 H58            8.1363     7.0120     0.3238 H       
@<TRIPOS>BOND
   1    1    6 ar
   2    1    2 ar
   3    1   13 ar
   4    2    3 ar
   5    2    9 ar
   6    3   10 1
   7    3    4 ar
   8    4    5 ar
   9    4   37 1
  10    5   11 1
  11    5    6 ar
  12    7   12 1
  13    7   13 ar
  14    7    8 ar
  15    8    9 ar
  16    8   38 1
  17    9   39 1
  18   10   29 ar
  19   10   33 ar
  20   11   14 am
  21   11   15 2
  22   12   16 1
  23   12   40 1
  24   12   41 1
  25   13   42 1
  26   14   43 1
  27   14   44 1
  28   16   17 1
  29   16   20 1
  30   17   18 2
  31   17   45 1
  32   18   19 1
  33   19   20 2
  34   19   21 1
  35   20   46 1
  36   21   22 1
  37   21   23 1
  38   21   24 1
  39   22   47 1
  40   23   28 1
  41   23   48 1
  42   23   49 1
  43   24   25 1
  44   24   26 1
  45   24   27 1
  46   28   50 1
  47   28   51 1
  48   28   52 1
  49   29   30 ar
  50   29   53 1
  51   30   31 ar
  52   30   54 1
  53   31   32 ar
  54   31   35 1
  55   32   33 ar
  56   32   55 1
  57   33   34 1
  58   35   36 1
  59   36   56 1
  60   36   57 1
  61   36   58 1

#	End of record

