#	Name: ASD05430257
#	Creating user name:	WinNT
#	Creation time:	15. 06. 2019 21:00

#	Modifying user name:	WinNT
#	Modification time:	15. 06. 2019 21:00

#	Program:	/corina/corina34_cracker 3.40 0067  02.08.2006

@<TRIPOS>MOLECULE
ASD05430257
  71   77    0    0    0
SMALL
NO_CHARGES


@<TRIPOS>ATOM
   1 C1            -1.6401    -2.3000     3.6448 C.ar    
   2 C2            -1.9167    -0.9796     3.9902 C.ar    
   3 C3            -0.9205    -0.0191     3.8975 C.ar    
   4 C4             0.3426    -0.3736     3.4634 C.ar    
   5 C5             0.6168    -1.6848     3.1201 C.ar    
   6 C6            -0.3708    -2.6476     3.2103 C.ar    
   7 C7             2.8992    -1.9270     4.9740 C.3     
   8 C8             3.0429    -1.4025     3.5414 C.3     
   9 C9             1.9960    -2.0650     2.6464 C.3     
  10 C10            1.6219    -1.3534     5.5952 C.3     
  11 C11            1.6115     0.1725     5.7587 C.3     
  12 N12            2.0925     0.7601     4.5079 N.pl3   
  13 C13            2.8276     0.0946     3.5443 C.2     
  14 N14            3.2988     0.9295     2.6857 N.2     
  15 N15           -3.2006    -0.6217     4.4304 N.pl3   
  16 C16           -3.5045     0.0973     5.5571 C.2     
  17 C17           -4.8458     0.2109     5.5974 C.2     
  18 N18           -5.3516    -0.4195     4.5272 N.2     
  19 C19           -4.3757    -0.9172     3.8174 C.2     
  20 C20           -5.6409     0.9233     6.6611 C.3     
  21 C21            1.8939     2.1274     4.0152 C.3     
  22 O22            2.9256     2.2584     3.0153 O.3     
  23 C23            0.5282     2.2792     3.3966 C.ar    
  24 O24           -2.6111    -3.2468     3.7391 O.3     
  25 C25            2.0972     3.1441     5.1404 C.3     
  26 N26            0.2848     1.7436     2.2167 N.ar    
  27 C27           -1.7086     3.1078     3.4992 C.ar    
  28 C28           -0.4555     2.9733     4.0758 C.ar    
  29 C29           -1.9270     2.5357     2.2527 C.ar    
  30 F30           -3.1327     2.6416     1.6526 F       
  31 C31            0.2980    -2.0406     5.2666 C.3     
  32 C32            0.9115    -2.1855     6.6611 C.3     
  33 C33           -2.2554    -4.5802     3.3680 C.3     
  34 C34           -0.8945     1.8502     1.6361 C.ar    
  35 C35            2.1581    -3.5874     2.7143 C.3     
  36 C36            4.4470    -1.7116     3.0224 C.3     
  37 C37            4.6998    -3.2209     3.1048 C.3     
  38 C38            3.5888    -3.9351     2.3672 C.2     
  39 O39            3.8377    -4.7621     1.5232 O.2     
  40 H40           -1.1321     1.0058     4.1642 H       
  41 H41            1.1174     0.3753     3.3917 H       
  42 H42           -0.1534    -3.6709     2.9419 H       
  43 H43            2.8397    -3.0153     4.9591 H       
  44 H44            3.7619    -1.6168     5.5636 H       
  45 H45            2.1323    -1.7301     1.6182 H       
  46 H46            0.5967     0.5151     5.9612 H       
  47 H47            2.2694     0.4603     6.5787 H       
  48 H48           -2.8029     0.4957     6.2751 H       
  49 H49           -4.4849    -1.4767     2.9001 H       
  50 H50           -5.7750     1.9670     6.3768 H       
  51 H51           -6.6158     0.4472     6.7660 H       
  52 H52           -5.1070     0.8710     7.6100 H       
  53 H53            3.1106     3.0550     5.5319 H       
  54 H54            1.9449     4.1511     4.7521 H       
  55 H55            1.3809     2.9504     5.9389 H       
  56 H56           -2.4963     3.6445     4.0070 H       
  57 H57           -0.2502     3.4052     5.0442 H       
  58 H58           -0.5857    -1.4101     5.1685 H       
  59 H59            0.3314    -2.9094     4.6092 H       
  60 H60            1.3486    -3.1496     6.9211 H       
  61 H61            0.4315    -1.6504     7.4804 H       
  62 H62           -3.1191    -5.2338     3.4896 H       
  63 H63           -1.9330    -4.5938     2.3269 H       
  64 H64           -1.4426    -4.9298     4.0046 H       
  65 H65           -1.0564     1.3980     0.6688 H       
  66 H66            1.9310    -3.9351     3.7221 H       
  67 H67            1.4832    -4.0596     2.0005 H       
  68 H68            4.5316    -1.3849     1.9860 H       
  69 H69            5.1832    -1.1861     3.6306 H       
  70 H70            5.6578    -3.4575     2.6418 H       
  71 H71            4.7070    -3.5345     4.1486 H       
@<TRIPOS>BOND
   1    1    2 ar
   2    1    6 ar
   3    1   24 1
   4    2    3 ar
   5    2   15 1
   6    3    4 ar
   7    3   40 1
   8    4    5 ar
   9    4   41 1
  10    5    6 ar
  11    5    9 1
  12    6   42 1
  13    7    8 1
  14    7   10 1
  15    7   43 1
  16    7   44 1
  17    8    9 1
  18    8   36 1
  19    8   13 1
  20    9   35 1
  21    9   45 1
  22   10   11 1
  23   10   31 1
  24   10   32 1
  25   11   12 1
  26   11   46 1
  27   11   47 1
  28   12   13 1
  29   12   21 1
  30   13   14 2
  31   14   22 1
  32   15   16 1
  33   15   19 1
  34   16   17 2
  35   16   48 1
  36   17   18 1
  37   17   20 1
  38   18   19 2
  39   19   49 1
  40   20   50 1
  41   20   51 1
  42   20   52 1
  43   21   22 1
  44   21   23 1
  45   21   25 1
  46   23   26 ar
  47   23   28 ar
  48   24   33 1
  49   25   53 1
  50   25   54 1
  51   25   55 1
  52   26   34 ar
  53   27   28 ar
  54   27   29 ar
  55   27   56 1
  56   28   57 1
  57   29   30 1
  58   29   34 ar
  59   31   32 1
  60   31   58 1
  61   31   59 1
  62   32   60 1
  63   32   61 1
  64   33   62 1
  65   33   63 1
  66   33   64 1
  67   34   65 1
  68   35   38 1
  69   35   66 1
  70   35   67 1
  71   36   37 1
  72   36   68 1
  73   36   69 1
  74   37   38 1
  75   37   70 1
  76   37   71 1
  77   38   39 2

#	End of record

