#	Name: ASD04800008
#	Creating user name:	WinNT
#	Creation time:	15. 06. 2019 20:52

#	Modifying user name:	WinNT
#	Modification time:	15. 06. 2019 20:52

#	Program:	/corina/corina34_cracker 3.40 0067  02.08.2006

@<TRIPOS>MOLECULE
ASD04800008
  31   32    0    0    0
SMALL
NO_CHARGES


@<TRIPOS>ATOM
   1 C1            -0.0914     1.2027    -0.4498 C.ar    
   2 C2            -0.0185    -0.0592     0.1104 C.ar    
   3 C3            -1.1448    -0.6388     0.6657 C.ar    
   4 C4            -2.3463     0.0417     0.6624 C.ar    
   5 C5            -2.4230     1.3098     0.1004 C.ar    
   6 C6            -1.2888     1.8912    -0.4513 C.ar    
   7 N7            -3.6382     2.0014     0.0948 N.am    
   8 C8            -4.7968     1.3270    -0.0440 C.2     
   9 C9            -6.0869     2.0397     0.0806 C.ar    
  10 C10           -6.4396     2.6442     1.2841 C.ar    
  11 C11           -6.9629     2.1158    -1.0184 C.ar    
  12 C12           -8.1744     2.7899    -0.8870 C.ar    
  13 C13           -8.5101     3.3790     0.3173 C.ar    
  14 C14           -7.6462     3.3090     1.3960 C.ar    
  15 O15           -4.7815     0.1332    -0.2718 O.2     
  16 N16            1.1165     1.8192    -1.0430 N.pl3   
  17 O17            2.1740     1.2147    -1.0375 O.2     
  18 O18            1.0531     2.9308    -1.5366 O.2     
  19 C19           -6.5989     1.4844    -2.3045 C.2     
  20 O20           -5.5823     0.8255    -2.3913 O.2     
  21 O21           -7.3947     1.6398    -3.3802 O.3     
  22 H22            0.9200    -0.5938     0.1140 H       
  23 H23           -1.0846    -1.6249     1.1022 H       
  24 H24           -3.2255    -0.4116     1.0959 H       
  25 H25           -1.3450     2.8771    -0.8887 H       
  26 H26           -3.6474     2.9666     0.1910 H       
  27 H27           -5.7706     2.5933     2.1304 H       
  28 H28           -8.8513     2.8526    -1.7262 H       
  29 H29           -9.4502     3.9013     0.4156 H       
  30 H30           -7.9185     3.7729     2.3325 H       
  31 H31           -7.1152     1.2081    -4.1991 H       
@<TRIPOS>BOND
   1    1    2 ar
   2    1   16 1
   3    1    6 ar
   4    2    3 ar
   5    2   22 1
   6    3    4 ar
   7    3   23 1
   8    4    5 ar
   9    4   24 1
  10    5    6 ar
  11    5    7 1
  12    6   25 1
  13    7    8 am
  14    7   26 1
  15    8    9 1
  16    8   15 2
  17    9   10 ar
  18    9   11 ar
  19   10   14 ar
  20   10   27 1
  21   11   12 ar
  22   11   19 1
  23   12   13 ar
  24   12   28 1
  25   13   14 ar
  26   13   29 1
  27   14   30 1
  28   16   17 2
  29   16   18 2
  30   19   20 2
  31   19   21 1
  32   21   31 1

#	End of record

