#	Name: ASD05060086
#	Creating user name:	WinNT
#	Creation time:	15. 06. 2019 20:56

#	Modifying user name:	WinNT
#	Modification time:	15. 06. 2019 20:56

#	Program:	/corina/corina34_cracker 3.40 0067  02.08.2006

@<TRIPOS>MOLECULE
ASD05060086
  21   22    0    0    0
SMALL
NO_CHARGES


@<TRIPOS>ATOM
   1 C1            -0.0169     1.3981     0.0097 C.ar    
   2 C2             0.0021    -0.0041     0.0020 C.ar    
   3 C3             1.2140    -0.6756    -0.0163 C.ar    
   4 C4             2.3987     0.0355    -0.0224 C.ar    
   5 C5             2.3860     1.4225    -0.0132 C.ar    
   6 C6             1.1879     2.1064     0.0020 C.ar    
   7 C7             1.2502    -2.1832    -0.0331 C.3     
   8 O8            -0.0309    -2.6909     0.3520 O.3     
   9 C9            -1.1139    -2.0714    -0.3521 C.3     
  10 O10           -1.1686    -0.6907     0.0177 O.3     
  11 C11           -1.3012     2.1214     0.0197 C.2     
  12 O12           -2.3470     1.5027     0.0213 O.2     
  13 O13           -1.3156     3.4689     0.0271 O.3     
  14 F14            3.5511     2.1062    -0.0186 F       
  15 H15            3.3409    -0.4921    -0.0341 H       
  16 H16            1.1811     3.1863     0.0076 H       
  17 H17            1.4921    -2.5302    -1.0376 H       
  18 H18            2.0072    -2.5369     0.6669 H       
  19 H19           -0.9481    -2.1562    -1.4261 H       
  20 H20           -2.0511    -2.5593    -0.0843 H       
  21 H21           -2.1818     3.8986     0.0336 H       
@<TRIPOS>BOND
   1    1    2 ar
   2    1    6 ar
   3    1   11 1
   4    2    3 ar
   5    2   10 1
   6    3    4 ar
   7    3    7 1
   8    4    5 ar
   9    4   15 1
  10    5    6 ar
  11    5   14 1
  12    6   16 1
  13    7    8 1
  14    7   17 1
  15    7   18 1
  16    8    9 1
  17    9   10 1
  18    9   19 1
  19    9   20 1
  20   11   12 2
  21   11   13 1
  22   13   21 1

#	End of record

