#	Name: ASD01028182
#	Creating user name:	WinNT
#	Creation time:	15. 06. 2019 18:56

#	Modifying user name:	WinNT
#	Modification time:	15. 06. 2019 18:56

#	Program:	/corina/corina34_cracker 3.40 0067  02.08.2006

@<TRIPOS>MOLECULE
ASD01028182
  36   39    0    0    0
SMALL
NO_CHARGES


@<TRIPOS>ATOM
   1 N1            -0.0157     1.3082     0.0092 N.ar    
   2 C2             0.0021    -0.0041     0.0020 C.ar    
   3 C3             1.1922    -0.7202    -0.0132 C.ar    
   4 C4             2.3997    -0.0447    -0.0211 C.ar    
   5 C5             2.3688     1.3681    -0.0132 C.ar    
   6 C6             3.5518     2.1216    -0.0208 C.ar    
   7 C7             3.4891     3.4809    -0.0134 C.ar    
   8 C8             2.2563     4.1399     0.0018 C.ar    
   9 C9             1.0778     3.4287     0.0101 C.ar    
  10 C10            1.1142     2.0252     0.0023 C.ar    
  11 O11            2.2210     5.4978     0.0089 O.3     
  12 C12            3.4769     6.1794     0.0002 C.3     
  13 O13            3.5766    -0.7177    -0.0354 O.3     
  14 C14            3.5077    -2.1450    -0.0420 C.3     
  15 C15            6.8403    -3.5078     0.5370 C.2     
  16 C16            7.8377    -3.9161     1.4412 C.2     
  17 C17            7.5979    -3.8194     2.7776 C.2     
  18 C18            6.3717    -3.3189     3.2392 C.2     
  19 N19            5.4420    -2.9383     2.4020 N.2     
  20 N20            5.6503    -3.0221     1.0239 N.pl3   
  21 N21            5.6089    -3.0002    -1.1236 N.2     
  22 N22            6.7592    -3.4677    -0.7829 N.2     
  23 C23            4.9026    -2.7151    -0.0579 C.2     
  24 Cl24           6.0838    -3.2029     4.9473 Cl      
  25 H25           -0.9344    -0.5420     0.0084 H       
  26 H26            1.1751    -1.8000    -0.0185 H       
  27 H27            4.5103     1.6241    -0.0322 H       
  28 H28            4.4024     4.0574    -0.0190 H       
  29 H29            0.1306     3.9474     0.0219 H       
  30 H30            3.3061     7.2559     0.0072 H       
  31 H31            4.0499     5.8967     0.8833 H       
  32 H32            4.0327     5.9056    -0.8966 H       
  33 H33            2.9853    -2.4876     0.8512 H       
  34 H34            2.9687    -2.4787    -0.9287 H       
  35 H35            8.7800    -4.3011     1.0802 H       
  36 H36            8.3536    -4.1292     3.4843 H       
@<TRIPOS>BOND
   1    1    2 ar
   2    1   10 ar
   3    2    3 ar
   4    2   25 1
   5    3    4 ar
   6    3   26 1
   7    4    5 ar
   8    4   13 1
   9    5    6 ar
  10    5   10 ar
  11    6    7 ar
  12    6   27 1
  13    7    8 ar
  14    7   28 1
  15    8    9 ar
  16    8   11 1
  17    9   10 ar
  18    9   29 1
  19   11   12 1
  20   12   30 1
  21   12   31 1
  22   12   32 1
  23   13   14 1
  24   14   23 1
  25   14   33 1
  26   14   34 1
  27   15   16 1
  28   15   20 1
  29   15   22 2
  30   16   17 2
  31   16   35 1
  32   17   18 1
  33   17   36 1
  34   18   19 2
  35   18   24 1
  36   19   20 1
  37   20   23 1
  38   21   22 1
  39   21   23 2

#	End of record

