#	Name: ASD01910089
#	Creating user name:	WinNT
#	Creation time:	15. 06. 2019 19:55

#	Modifying user name:	WinNT
#	Modification time:	15. 06. 2019 19:55

#	Program:	/corina/corina34_cracker 3.40 0067  02.08.2006

@<TRIPOS>MOLECULE
ASD01910089
  29   30    0    0    0
SMALL
NO_CHARGES


@<TRIPOS>ATOM
   1 C1            -0.0140     1.3173     0.0230 C.2     
   2 N2             0.0026    -0.0039     0.0096 N.2     
   3 C3             1.1663    -0.6588    -0.1180 C.2     
   4 N4             1.1976    -2.0026    -0.0197 N.am    
   5 C5             2.3937    -2.6926    -0.2437 C.ar    
   6 C6             3.6031    -2.1323     0.1448 C.ar    
   7 C7             4.7833    -2.8170    -0.0781 C.ar    
   8 C8             4.7593    -4.0591    -0.6877 C.ar    
   9 C9             3.5557    -4.6188    -1.0754 C.ar    
  10 C10            2.3731    -3.9422    -0.8501 C.ar    
  11 Cl11           6.2965    -2.1177     0.4064 Cl      
  12 O12            2.1946    -0.0391    -0.3227 O.2     
  13 N13            1.1045     2.0972     0.0478 N.am    
  14 C14            0.7888     3.4065     0.0562 C.2     
  15 C15           -0.7239     3.4771     0.0340 C.3     
  16 N16           -1.1495     2.0680     0.0079 N.pl3   
  17 C17           -2.5272     1.5704    -0.0205 C.3     
  18 O18            1.5607     4.3412     0.0776 O.2     
  19 H19            0.3908    -2.4913     0.2063 H       
  20 H20            3.6220    -1.1628     0.6202 H       
  21 H21            5.6823    -4.5922    -0.8613 H       
  22 H22            3.5401    -5.5884    -1.5509 H       
  23 H23            1.4337    -4.3803    -1.1533 H       
  24 H24            2.0113     1.7530     0.0586 H       
  25 H25           -1.0959     3.9751     0.9293 H       
  26 H26           -1.0687     3.9931    -0.8621 H       
  27 H27           -2.8527     1.4611    -1.0550 H       
  28 H28           -2.5744     0.6030     0.4794 H       
  29 H29           -3.1793     2.2770     0.4929 H       
@<TRIPOS>BOND
   1    1    2 2
   2    1   13 1
   3    1   16 1
   4    2    3 1
   5    3    4 am
   6    3   12 2
   7    4    5 1
   8    4   19 1
   9    5    6 ar
  10    5   10 ar
  11    6    7 ar
  12    6   20 1
  13    7    8 ar
  14    7   11 1
  15    8    9 ar
  16    8   21 1
  17    9   10 ar
  18    9   22 1
  19   10   23 1
  20   13   14 am
  21   13   24 1
  22   14   15 1
  23   14   18 2
  24   15   16 1
  25   15   25 1
  26   15   26 1
  27   16   17 1
  28   17   27 1
  29   17   28 1
  30   17   29 1

#	End of record

