#	Name: ASD01940183
#	Creating user name:	WinNT
#	Creation time:	15. 06. 2019 20:11

#	Modifying user name:	WinNT
#	Modification time:	15. 06. 2019 20:11

#	Program:	/corina/corina34_cracker 3.40 0067  02.08.2006

@<TRIPOS>MOLECULE
ASD01940183
  45   46    0    0    0
SMALL
NO_CHARGES


@<TRIPOS>ATOM
   1 F1             1.9036     1.5948     2.2853 F       
   2 C2             1.0649     2.1487     1.3825 C.ar    
   3 C3             1.3889     2.1336     0.0324 C.ar    
   4 C4             0.5201     2.7060    -0.8953 C.ar    
   5 C5            -0.6634     3.2876    -0.4661 C.ar    
   6 C6            -0.9806     3.3001     0.8797 C.ar    
   7 C7            -0.1222     2.7272     1.8026 C.ar    
   8 N8             2.5865     1.5449    -0.3964 N.pl3   
   9 N9             0.8423     2.6940    -2.2591 N.am    
  10 C10            2.6330     0.1747    -0.6704 C.ar    
  11 C11            1.4780    -0.5911    -0.5878 C.ar    
  12 C12            1.5272    -1.9451    -0.8592 C.ar    
  13 C13            2.7247    -2.5386    -1.2124 C.ar    
  14 C14            3.8786    -1.7801    -1.2960 C.ar    
  15 C15            3.8361    -0.4239    -1.0321 C.ar    
  16 F16            4.9627     0.3172    -1.1143 F       
  17 F17           -0.4399     2.7369     3.1156 F       
  18 S18            0.4257     3.9771    -3.2195 S.o2    
  19 O19            0.9903     3.6650    -4.4856 O.2     
  20 O20           -0.9806     4.0968    -3.0538 O.2     
  21 C21           -0.3267     7.0922    -3.0158 C.3     
  22 C22           -0.5248     8.3470    -3.8685 C.3     
  23 C23           -1.9324     8.9016    -3.6404 C.3     
  24 C24            2.7735    -4.0159    -1.5064 C.3     
  25 F25            2.5350    -4.2283    -2.8685 F       
  26 F26            4.0357    -4.5169    -1.1703 F       
  27 F27            1.7950    -4.6738    -0.7535 F       
  28 C28            1.2773     5.3952    -2.4749 C.3     
  29 O29            0.9879     6.5742    -3.2288 O.3     
  30 H30           -1.3377     3.7315    -1.1835 H       
  31 H31           -1.9028     3.7540     1.2114 H       
  32 H32            3.3830     2.0881    -0.5030 H       
  33 H33            1.3093     1.9342    -2.6405 H       
  34 H34            0.5419    -0.1290    -0.3114 H       
  35 H35            0.6287    -2.5408    -0.7950 H       
  36 H36            4.8124    -2.2470    -1.5722 H       
  37 H37           -0.4514     7.3450    -1.9629 H       
  38 H38           -1.0637     6.3405    -3.2987 H       
  39 H39            0.2121     9.0986    -3.5856 H       
  40 H40           -0.4001     8.0941    -4.9214 H       
  41 H41           -2.0735     9.7956    -4.2479 H       
  42 H42           -2.6693     8.1500    -3.9234 H       
  43 H43           -2.0571     9.1544    -2.5875 H       
  44 H44            0.9345     5.5269    -1.4486 H       
  45 H45            2.3525     5.2163    -2.4787 H       
@<TRIPOS>BOND
   1    1    2 1
   2    2    3 ar
   3    2    7 ar
   4    3    4 ar
   5    3    8 1
   6    4    5 ar
   7    4    9 1
   8    5    6 ar
   9    5   30 1
  10    6    7 ar
  11    6   31 1
  12    7   17 1
  13    8   10 1
  14    8   32 1
  15    9   18 am
  16    9   33 1
  17   10   11 ar
  18   10   15 ar
  19   11   12 ar
  20   11   34 1
  21   12   13 ar
  22   12   35 1
  23   13   14 ar
  24   13   24 1
  25   14   15 ar
  26   14   36 1
  27   15   16 1
  28   18   19 2
  29   18   20 2
  30   18   28 1
  31   21   29 1
  32   21   22 1
  33   21   37 1
  34   21   38 1
  35   22   23 1
  36   22   39 1
  37   22   40 1
  38   23   41 1
  39   23   42 1
  40   23   43 1
  41   24   25 1
  42   24   26 1
  43   24   27 1
  44   28   29 1
  45   28   44 1
  46   28   45 1

#	End of record

