#	Name: ASD00431032
#	Creating user name:	WinNT
#	Creation time:	15. 06. 2019 18:35

#	Modifying user name:	WinNT
#	Modification time:	15. 06. 2019 18:35

#	Program:	/corina/corina34_cracker 3.40 0067  02.08.2006

@<TRIPOS>MOLECULE
ASD00431032
  25   26    0    0    0
SMALL
NO_CHARGES


@<TRIPOS>ATOM
   1 C1            -0.0081     1.4637     0.0107 C.3     
   2 N2             0.0312    -0.0065     0.0236 N.am    
   3 C3             0.8950    -0.6882    -0.9523 C.3     
   4 C4             2.2982    -0.0777    -0.8704 C.3     
   5 N5             2.2052     1.3792    -1.0341 N.3     
   6 C6             1.4306     1.9895     0.0547 C.3     
   7 C7            -0.7045    -0.7105     0.9066 C.2     
   8 O8            -1.3235    -0.1324     1.7805 O.2     
   9 C9            -0.7592    -2.1731     0.8142 C.2     
  10 O10           -0.2306    -2.9254    -0.1731 O.3     
  11 C11           -0.4734    -4.2189     0.0751 C.2     
  12 C12           -1.1653    -4.3173     1.2317 C.2     
  13 C13           -1.3489    -3.0124     1.7154 C.2     
  14 H14           -0.4963     1.8090    -0.9006 H       
  15 H15           -0.5560     1.8230     0.8817 H       
  16 H16            0.9441    -1.7515    -0.7180 H       
  17 H17            0.4936    -0.5497    -1.9562 H       
  18 H18            2.7386    -0.3072     0.0999 H       
  19 H19            2.9225    -0.4934    -1.6612 H       
  20 H20            3.1221     1.7947    -1.1025 H       
  21 H21            1.4258     3.0728    -0.0652 H       
  22 H22            1.8832     1.7311     1.0121 H       
  23 H23           -0.1667    -5.0470    -0.5466 H       
  24 H24           -1.5093    -5.2287     1.6980 H       
  25 H25           -1.8625    -2.7272     2.6216 H       
@<TRIPOS>BOND
   1    1    2 1
   2    1    6 1
   3    1   14 1
   4    1   15 1
   5    2    3 1
   6    2    7 am
   7    3    4 1
   8    3   16 1
   9    3   17 1
  10    4    5 1
  11    4   18 1
  12    4   19 1
  13    5    6 1
  14    5   20 1
  15    6   21 1
  16    6   22 1
  17    7    8 2
  18    7    9 1
  19    9   10 1
  20    9   13 2
  21   10   11 1
  22   11   12 2
  23   11   23 1
  24   12   13 1
  25   12   24 1
  26   13   25 1

#	End of record

