#	Name: ASD00170365
#	Creating user name:	WinNT
#	Creation time:	15. 06. 2019 18:32

#	Modifying user name:	WinNT
#	Modification time:	15. 06. 2019 18:32

#	Program:	/corina/corina34_cracker 3.40 0067  02.08.2006

@<TRIPOS>MOLECULE
ASD00170365
  37   39    0    0    0
SMALL
NO_CHARGES


@<TRIPOS>ATOM
   1 C1             0.0146     1.3185    -0.0542 C.2     
   2 C2             0.0205    -0.0182    -0.0723 C.2     
   3 C3            -1.3167    -0.5798     0.0132 C.2     
   4 C4            -2.2994     0.3727     0.0944 C.2     
   5 S5            -1.6253     1.9356     0.0608 S.3     
   6 C6            -1.5874    -2.0178     0.0127 C.2     
   7 C7            -1.8373    -2.7219    -1.2617 C.ar    
   8 O8            -1.6067    -2.6342     1.0629 O.2     
   9 C9            -1.9783    -4.1118    -1.2780 C.ar    
  10 C10           -2.2111    -4.7646    -2.4680 C.ar    
  11 C11           -2.3059    -4.0425    -3.6519 C.ar    
  12 C12           -2.1657    -2.6598    -3.6399 C.ar    
  13 C13           -1.9389    -1.9991    -2.4530 C.ar    
  14 N14           -3.6500     0.1018     0.1848 N.pl3   
  15 C15            1.2609     2.1799    -0.1298 C.3     
  16 C16            2.4802     1.3110     0.1903 C.3     
  17 C17            2.4280     0.0422    -0.6661 C.3     
  18 C18            1.2886    -0.8513    -0.1715 C.3     
  19 O19           -2.5354    -4.6895    -4.8228 O.3     
  20 C20           -2.6214    -3.8864    -6.0016 C.3     
  21 H21           -1.9044    -4.6736    -0.3585 H       
  22 H22           -2.3198    -5.8390    -2.4815 H       
  23 H23           -2.2393    -2.1023    -4.5619 H       
  24 H24           -1.8305    -0.9246    -2.4444 H       
  25 H25           -3.9668    -0.8126     0.1186 H       
  26 H26           -4.2823     0.8259     0.3145 H       
  27 H27            1.3596     2.5925    -1.1339 H       
  28 H28            1.1894     2.9906     0.5953 H       
  29 H29            3.3917     1.8650    -0.0339 H       
  30 H30            2.4673     1.0393     1.2458 H       
  31 H31            2.2528     0.3126    -1.7074 H       
  32 H32            3.3737    -0.4932    -0.5820 H       
  33 H33            1.5391    -1.2529     0.8104 H       
  34 H34            1.1344    -1.6697    -0.8747 H       
  35 H35           -3.4385    -3.1727    -5.8963 H       
  36 H36           -1.6845    -3.3477    -6.1435 H       
  37 H37           -2.8068    -4.5262    -6.8644 H       
@<TRIPOS>BOND
   1    1    2 2
   2    1   15 1
   3    1    5 1
   4    2    3 1
   5    2   18 1
   6    3    4 2
   7    3    6 1
   8    4    5 1
   9    4   14 1
  10    6    7 1
  11    6    8 2
  12    7    9 ar
  13    7   13 ar
  14    9   10 ar
  15    9   21 1
  16   10   11 ar
  17   10   22 1
  18   11   12 ar
  19   11   19 1
  20   12   13 ar
  21   12   23 1
  22   13   24 1
  23   14   25 1
  24   14   26 1
  25   15   16 1
  26   15   27 1
  27   15   28 1
  28   16   17 1
  29   16   29 1
  30   16   30 1
  31   17   18 1
  32   17   31 1
  33   17   32 1
  34   18   33 1
  35   18   34 1
  36   19   20 1
  37   20   35 1
  38   20   36 1
  39   20   37 1

#	End of record

