#	Name: ASD07931693
#	Creating user name:	WinNT
#	Creation time:	15. 06. 2019 21:13

#	Modifying user name:	WinNT
#	Modification time:	15. 06. 2019 21:13

#	Program:	/corina/corina34_cracker 3.40 0067  02.08.2006

@<TRIPOS>MOLECULE
ASD07931693
  54   58    0    0    0
SMALL
NO_CHARGES


@<TRIPOS>ATOM
   1 C1            -0.0589     1.4535    -0.5391 C.2     
   2 C2            -0.0673     0.0994    -0.3444 C.2     
   3 C3             1.2054    -0.5896    -0.1175 C.2     
   4 N4             2.3459     0.1220    -0.1042 N.am    
   5 C5             2.3284     1.4838    -0.3048 C.2     
   6 C6             1.1583     2.1456    -0.5175 C.2     
   7 C7             3.6387    -0.5365     0.1267 C.3     
   8 C8             4.6708     0.0966    -0.8182 C.3     
   9 N9             4.7563     1.5335    -0.5204 N.am    
  10 C10            3.6120     2.2194    -0.2862 C.2     
  11 C11            6.0546     2.2109    -0.4778 C.3     
  12 O12            1.2300    -1.7960     0.0579 O.2     
  13 N13           -1.2692    -0.6140    -0.3612 N.pl3   
  14 C14           -2.1056    -0.7771    -1.4357 C.2     
  15 C15           -1.8269    -1.2821     0.6826 C.2     
  16 N16           -2.9450    -1.8220     0.2805 N.2     
  17 C17           -3.1404    -1.5282    -1.0138 C.2     
  18 C18           -4.3152    -1.9638    -1.8511 C.3     
  19 O19            3.6392     3.4148    -0.0657 O.2     
  20 C20            6.7595     2.2780    -1.8428 C.3     
  21 C21            7.3955     0.9223    -1.4929 C.3     
  22 C22            7.2075     1.3043    -0.0152 C.3     
  23 O23            8.7649     0.8139    -1.8864 O.3     
  24 C24            9.2549    -0.4394    -2.0765 C.ar    
  25 C25            8.4736    -1.5443    -1.7721 C.ar    
  26 C26            8.9740    -2.8175    -1.9662 C.ar    
  27 C27           10.2522    -2.9906    -2.4635 C.ar    
  28 C28           11.0333    -1.8906    -2.7674 C.ar    
  29 C29           10.5354    -0.6158    -2.5809 C.ar    
  30 C30           11.3869     0.5824    -2.9128 C.3     
  31 F31           12.6304     0.1533    -3.3892 F       
  32 F32           10.7506     1.3491    -3.8950 F       
  33 F33           11.5703     1.3572    -1.7625 F       
  34 H34           -0.9835     1.9840    -0.7125 H       
  35 H35            1.1687     3.2145    -0.6715 H       
  36 H36            3.9475    -0.3890     1.1616 H       
  37 H37            3.5518    -1.6025    -0.0839 H       
  38 H38            5.6442    -0.3683    -0.6617 H       
  39 H39            4.3561    -0.0450    -1.8521 H       
  40 H40            6.0154     3.1687     0.0410 H       
  41 H41           -1.9618    -0.3794    -2.4295 H       
  42 H42           -1.4139    -1.3546     1.6779 H       
  43 H43           -5.1067    -1.2175    -1.7827 H       
  44 H44           -4.0024    -2.0674    -2.8901 H       
  45 H45           -4.6863    -2.9215    -1.4862 H       
  46 H46            6.0753     2.2337    -2.6902 H       
  47 H47            7.4809     3.0913    -1.9222 H       
  48 H48            6.7961     0.0661    -1.8022 H       
  49 H49            8.0514     1.8514     0.4051 H       
  50 H50            6.8849     0.4739     0.6128 H       
  51 H51            7.4750    -1.4096    -1.3832 H       
  52 H52            8.3662    -3.6781    -1.7290 H       
  53 H53           10.6416    -3.9866    -2.6146 H       
  54 H54           12.0317    -2.0285    -3.1555 H       
@<TRIPOS>BOND
   1    1    2 2
   2    1    6 1
   3    1   34 1
   4    2    3 1
   5    2   13 1
   6    3    4 am
   7    3   12 2
   8    4    5 1
   9    4    7 1
  10    5    6 2
  11    5   10 1
  12    6   35 1
  13    7    8 1
  14    7   36 1
  15    7   37 1
  16    8    9 1
  17    8   38 1
  18    8   39 1
  19    9   10 am
  20    9   11 1
  21   10   19 2
  22   11   20 1
  23   11   22 1
  24   11   40 1
  25   13   14 1
  26   13   15 1
  27   14   17 2
  28   14   41 1
  29   15   16 2
  30   15   42 1
  31   16   17 1
  32   17   18 1
  33   18   43 1
  34   18   44 1
  35   18   45 1
  36   20   21 1
  37   20   46 1
  38   20   47 1
  39   21   22 1
  40   21   23 1
  41   21   48 1
  42   22   49 1
  43   22   50 1
  44   23   24 1
  45   24   25 ar
  46   24   29 ar
  47   25   26 ar
  48   25   51 1
  49   26   27 ar
  50   26   52 1
  51   27   28 ar
  52   27   53 1
  53   28   29 ar
  54   28   54 1
  55   29   30 1
  56   30   31 1
  57   30   32 1
  58   30   33 1

#	End of record

