#	Name: ASD04590355
#	Creating user name:	WinNT
#	Creation time:	15. 06. 2019 20:50

#	Modifying user name:	WinNT
#	Modification time:	15. 06. 2019 20:50

#	Program:	/corina/corina34_cracker 3.40 0067  02.08.2006

@<TRIPOS>MOLECULE
ASD04590355
  34   37    0    0    0
SMALL
NO_CHARGES


@<TRIPOS>ATOM
   1 C1            -0.0167     1.3834     0.0096 C.ar    
   2 C2             0.0021    -0.0041     0.0020 C.ar    
   3 C3             1.1863    -0.6848    -0.0125 C.ar    
   4 C4             2.3948     0.0191    -0.0202 C.ar    
   5 C5             2.3756     1.4250    -0.0129 C.ar    
   6 C6             1.1624     2.0987     0.0022 C.ar    
   7 N7             3.6952    -0.3636    -0.0350 N.2     
   8 C8             4.4665     0.6967    -0.0373 C.2     
   9 N9             3.6970     1.8290    -0.0240 N.pl3   
  10 C10            5.9437     0.6731    -0.0516 C.2     
  11 C11            6.7565    -0.4839    -0.0655 C.2     
  12 C12            8.0503    -0.0801    -0.0763 C.2     
  13 N13            8.0626     1.2789    -0.0696 N.pl3   
  14 N14            6.7358     1.7273    -0.0595 N.2     
  15 N15            6.3041    -1.8136    -0.0673 N.am    
  16 C16            7.1920    -2.8275    -0.0812 C.2     
  17 C17            6.7178    -4.2216    -0.0831 C.2     
  18 O18            8.3853    -2.5909    -0.0923 O.2     
  19 C19            7.4878    -5.3518    -0.0964 C.2     
  20 N20            6.6711    -6.4226    -0.0924 N.pl3   
  21 C21            5.3666    -6.0228    -0.0766 C.2     
  22 C22            5.3240    -4.6786    -0.0646 C.2     
  23 H23           -0.9614     1.9069     0.0169 H       
  24 H24           -0.9290    -0.5513     0.0080 H       
  25 H25            1.1893    -1.7648    -0.0176 H       
  26 H26            1.1417     3.1785     0.0075 H       
  27 H27            4.0192     2.7439    -0.0229 H       
  28 H28            8.9174    -0.7238    -0.0881 H       
  29 H29            8.8532     1.8409    -0.0746 H       
  30 H30            5.3527    -2.0022    -0.0585 H       
  31 H31            8.5674    -5.3807    -0.1081 H       
  32 H32            6.9677    -7.3461    -0.0997 H       
  33 H33            4.5085    -6.6786    -0.0709 H       
  34 H34            4.4396    -4.0590    -0.0509 H       
@<TRIPOS>BOND
   1    1    2 ar
   2    1    6 ar
   3    1   23 1
   4    2    3 ar
   5    2   24 1
   6    3    4 ar
   7    3   25 1
   8    4    5 ar
   9    4    7 1
  10    5    6 ar
  11    5    9 1
  12    6   26 1
  13    7    8 2
  14    8    9 1
  15    8   10 1
  16    9   27 1
  17   10   11 1
  18   10   14 2
  19   11   12 2
  20   11   15 1
  21   12   13 1
  22   12   28 1
  23   13   14 1
  24   13   29 1
  25   15   16 am
  26   15   30 1
  27   16   17 1
  28   16   18 2
  29   17   19 2
  30   17   22 1
  31   19   20 1
  32   19   31 1
  33   20   21 1
  34   20   32 1
  35   21   22 2
  36   21   33 1
  37   22   34 1

#	End of record

