#	Name: ASD02030030
#	Creating user name:	WinNT
#	Creation time:	15. 06. 2019 20:14

#	Modifying user name:	WinNT
#	Modification time:	15. 06. 2019 20:14

#	Program:	/corina/corina34_cracker 3.40 0067  02.08.2006

@<TRIPOS>MOLECULE
ASD02030030
  43   45    0    0    0
SMALL
NO_CHARGES


@<TRIPOS>ATOM
   1 C1            -0.0166     1.3765     0.0096 C.ar    
   2 C2             0.0021    -0.0041     0.0020 C.ar    
   3 C3            -1.1922    -0.7145    -0.0004 C.ar    
   4 C4            -2.4121    -0.0650     0.0090 C.ar    
   5 C5            -2.4512     1.3286     0.0214 C.ar    
   6 C6            -1.2414     2.0475     0.0189 C.ar    
   7 C7             1.2414     2.2046     0.0020 C.3     
   8 C8             2.4427     1.3612     0.4239 C.3     
   9 C9             2.4585     0.0843    -0.4247 C.3     
  10 C10            1.2852    -0.7941     0.0042 C.3     
  11 C11           -3.7344     2.0408     0.0332 C.2     
  12 C12           -3.7981     3.3856     0.0449 C.2     
  13 C13           -2.6307     4.1855     0.0459 C.2     
  14 C14           -1.2865     3.5247     0.0322 C.2     
  15 O15           -0.2665     4.1817     0.0327 O.2     
  16 O16           -2.7180     5.3974     0.0558 O.2     
  17 C17           -5.1475     4.0564     0.0567 C.3     
  18 C18           -5.2774     4.9186     1.3139 C.3     
  19 C19           -5.2887     4.9398    -1.1845 C.3     
  20 C20            1.5451    -1.3299     1.4135 C.3     
  21 C21            1.1550    -1.9703    -0.9655 C.3     
  22 H22           -1.1667    -1.7941    -0.0100 H       
  23 H23           -3.3301    -0.6339     0.0063 H       
  24 H24            1.4100     2.5929    -1.0024 H       
  25 H25            1.1269     3.0385     0.6945 H       
  26 H26            3.3620     1.9231     0.2589 H       
  27 H27            2.3558     1.1000     1.4786 H       
  28 H28            2.3573     0.3428    -1.4787 H       
  29 H29            3.3948    -0.4506    -0.2656 H       
  30 H30           -4.6519     1.4711     0.0321 H       
  31 H31           -5.9303     3.2979     0.0538 H       
  32 H32           -4.4946     5.6771     1.3168 H       
  33 H33           -6.2534     5.4038     1.3224 H       
  34 H34           -5.1768     4.2893     2.1981 H       
  35 H35           -6.2647     5.4250    -1.1760 H       
  36 H36           -4.5058     5.6983    -1.1816 H       
  37 H37           -5.1961     4.3255    -2.0801 H       
  38 H38            1.6487    -0.4948     2.1064 H       
  39 H39            0.7096    -1.9576     1.7234 H       
  40 H40            2.4622    -1.9190     1.4149 H       
  41 H41            2.0741    -2.5561    -0.9517 H       
  42 H42            0.3183    -2.5999    -0.6627 H       
  43 H43            0.9797    -1.5929    -1.9730 H       
@<TRIPOS>BOND
   1    1    2 ar
   2    1    7 1
   3    1    6 ar
   4    2    3 ar
   5    2   10 1
   6    3    4 ar
   7    3   22 1
   8    4    5 ar
   9    4   23 1
  10    5    6 ar
  11    5   11 1
  12    6   14 1
  13    7    8 1
  14    7   24 1
  15    7   25 1
  16    8    9 1
  17    8   26 1
  18    8   27 1
  19    9   10 1
  20    9   28 1
  21    9   29 1
  22   10   20 1
  23   10   21 1
  24   11   12 2
  25   11   30 1
  26   12   13 1
  27   12   17 1
  28   13   14 1
  29   13   16 2
  30   14   15 2
  31   17   18 1
  32   17   19 1
  33   17   31 1
  34   18   32 1
  35   18   33 1
  36   18   34 1
  37   19   35 1
  38   19   36 1
  39   19   37 1
  40   20   38 1
  41   20   39 1
  42   20   40 1
  43   21   41 1
  44   21   42 1
  45   21   43 1

#	End of record

