#	Name: ASD01208453
#	Creating user name:	WinNT
#	Creation time:	15. 06. 2019 19:09

#	Modifying user name:	WinNT
#	Modification time:	15. 06. 2019 19:09

#	Program:	/corina/corina34_cracker 3.40 0067  02.08.2006

@<TRIPOS>MOLECULE
ASD01208453
  54   56    0    0    0
SMALL
NO_CHARGES


@<TRIPOS>ATOM
   1 N1            -0.4111     1.2451    -1.1723 N.pl3   
   2 C2            -0.4370    -0.0162    -1.7251 C.2     
   3 C3             0.8689    -0.4291    -1.9060 C.2     
   4 C4             1.6971     0.5969    -1.4564 C.2     
   5 C5             0.8897     1.6203    -1.0079 C.2     
   6 C6            -1.6371    -0.7843    -2.0612 C.2     
   7 O7            -1.5324    -1.8942    -2.5476 O.2     
   8 O8            -2.8593    -0.2610    -1.8314 O.3     
   9 C9             1.3547     2.9057    -0.4451 C.ar    
  10 C10            2.7210     3.1661    -0.3309 C.ar    
  11 C11            3.1524     4.3715     0.1969 C.ar    
  12 C12            2.2284     5.3197     0.6125 C.ar    
  13 C13            0.8691     5.0649     0.5008 C.ar    
  14 C14            0.4289     3.8641    -0.0319 C.ar    
  15 O15           -0.0317     5.9968     0.9092 O.3     
  16 C16           -0.6482     5.8069     2.1052 C.ar    
  17 C17           -1.5990     6.7149     2.5489 C.ar    
  18 C18           -2.2243     6.5196     3.7651 C.ar    
  19 C19           -1.9034     5.4204     4.5401 C.ar    
  20 C20           -0.9560     4.5143     4.1005 C.ar    
  21 C21           -0.3322     4.7016     2.8823 C.ar    
  22 S22           -2.7028     5.1742     6.0909 S.o2    
  23 O23           -1.7733     4.4103     6.8470 O.2     
  24 O24           -3.0823     6.4808     6.5008 O.2     
  25 C25           -4.1678     4.1814     5.6924 C.3     
  26 O26            4.4828     4.6260     0.3085 O.3     
  27 C27            4.8581     5.9224     0.7780 C.3     
  28 C28            6.2695     6.2532     0.2887 C.3     
  29 C29            4.8319     5.9382     2.3077 C.3     
  30 O30            7.2038     5.3504     0.8839 O.3     
  31 C31            8.5593     5.5741     0.4909 C.3     
  32 H32           -1.1878     1.7788    -0.9424 H       
  33 H33            1.1890    -1.3740    -2.3195 H       
  34 H34            2.7771     0.5914    -1.4585 H       
  35 H35           -3.5898    -0.8415    -2.0854 H       
  36 H36            3.4409     2.4285    -0.6534 H       
  37 H37            2.5683     6.2584     1.0244 H       
  38 H38           -0.6293     3.6683    -0.1226 H       
  39 H39           -1.8498     7.5738     1.9440 H       
  40 H40           -2.9641     7.2262     4.1110 H       
  41 H41           -0.7066     3.6569     4.7081 H       
  42 H42            0.4042     3.9910     2.5372 H       
  43 H43           -3.8565     3.2394     5.2410 H       
  44 H44           -4.7288     3.9792     6.6048 H       
  45 H45           -4.7983     4.7291     4.9920 H       
  46 H46            4.1576     6.6645     0.3950 H       
  47 H47            6.3102     6.1552    -0.7961 H       
  48 H48            6.5217     7.2754     0.5709 H       
  49 H49            5.5325     5.1961     2.6908 H       
  50 H50            5.1182     6.9270     2.6659 H       
  51 H51            3.8264     5.7025     2.6563 H       
  52 H52            8.6475     5.4621    -0.5898 H       
  53 H53            8.8590     6.5822     0.7773 H       
  54 H54            9.2054     4.8487     0.9853 H       
@<TRIPOS>BOND
   1    1    2 1
   2    1    5 1
   3    1   32 1
   4    2    3 2
   5    2    6 1
   6    3    4 1
   7    3   33 1
   8    4    5 2
   9    4   34 1
  10    5    9 1
  11    6    7 2
  12    6    8 1
  13    8   35 1
  14    9   10 ar
  15    9   14 ar
  16   10   11 ar
  17   10   36 1
  18   11   12 ar
  19   11   26 1
  20   12   13 ar
  21   12   37 1
  22   13   14 ar
  23   13   15 1
  24   14   38 1
  25   15   16 1
  26   16   17 ar
  27   16   21 ar
  28   17   18 ar
  29   17   39 1
  30   18   19 ar
  31   18   40 1
  32   19   20 ar
  33   19   22 1
  34   20   21 ar
  35   20   41 1
  36   21   42 1
  37   22   23 2
  38   22   24 2
  39   22   25 1
  40   25   43 1
  41   25   44 1
  42   25   45 1
  43   26   27 1
  44   27   28 1
  45   27   29 1
  46   27   46 1
  47   28   30 1
  48   28   47 1
  49   28   48 1
  50   29   49 1
  51   29   50 1
  52   29   51 1
  53   30   31 1
  54   31   52 1
  55   31   53 1
  56   31   54 1

#	End of record

