#	Name: ASD01918150
#	Creating user name:	WinNT
#	Creation time:	15. 06. 2019 20:10

#	Modifying user name:	WinNT
#	Modification time:	15. 06. 2019 20:10

#	Program:	/corina/corina34_cracker 3.40 0067  02.08.2006

@<TRIPOS>MOLECULE
ASD01918150
  37   40    0    0    0
SMALL
NO_CHARGES


@<TRIPOS>ATOM
   1 N1             5.1490     1.7515    -3.1532 N.ar    
   2 C2             5.3113     0.4451    -3.2314 C.ar    
   3 C3             4.8623    -0.3880    -2.2215 C.ar    
   4 C4             4.2338     0.1686    -1.1143 C.ar    
   5 C5             4.0810     1.5529    -1.0674 C.ar    
   6 C6             4.5578     2.3188    -2.1197 C.ar    
   7 O7             3.4722     2.1437    -0.0052 O.3     
   8 C8             3.4510     3.5028     0.0439 C.2     
   9 N9             2.1975     5.5138    -0.0224 N.pl3   
  10 C10            2.2673     4.1580    -0.0659 C.2     
  11 C11            4.6497     4.2061     0.2129 C.2     
  12 C12            4.6198     5.5954     0.2626 C.2     
  13 C13            3.3264     6.2665     0.1351 C.2     
  14 C14            5.8588     6.3713     0.4396 C.2     
  15 N15            5.8102     7.7174     0.4854 N.am    
  16 O16            6.9261     5.7974     0.5444 O.2     
  17 N17            1.1334     6.4233    -0.1091 N.2     
  18 C18            1.6463     7.6268    -0.0110 C.2     
  19 N19            2.9615     7.5389     0.1411 N.2     
  20 C20            6.9659     8.4478     0.7583 C.ar    
  21 N21            8.1271     7.8215     0.8641 N.ar    
  22 C22            6.8881     9.8272     0.9110 C.ar    
  23 C23            8.0423    10.5412     1.1817 C.ar    
  24 C24            9.2409     9.8464     1.2908 C.ar    
  25 C25            9.2446     8.4736     1.1213 C.ar    
  26 F26            5.0325    -1.7252    -2.3113 F       
  27 F27            3.7818    -0.6125    -0.1090 F       
  28 F28           10.3907    10.5052     1.5537 F       
  29 H29            5.8008     0.0197    -4.0951 H       
  30 H30            4.4443     3.3925    -2.0928 H       
  31 H31            1.3589     3.5874    -0.1913 H       
  32 H32            5.5862     3.6760     0.3038 H       
  33 H33            4.9711     8.1781     0.3285 H       
  34 H34            1.0833     8.5480    -0.0423 H       
  35 H35            5.9394    10.3352     0.8192 H       
  36 H36            8.0123    11.6137     1.3049 H       
  37 H37           10.1739     7.9290     1.2005 H       
@<TRIPOS>BOND
   1    1    2 ar
   2    1    6 ar
   3    2    3 ar
   4    2   29 1
   5    3    4 ar
   6    3   26 1
   7    4    5 ar
   8    4   27 1
   9    5    6 ar
  10    5    7 1
  11    6   30 1
  12    7    8 1
  13    8   11 1
  14    8   10 2
  15    9   10 1
  16    9   17 1
  17    9   13 1
  18   10   31 1
  19   11   12 2
  20   11   32 1
  21   12   13 1
  22   12   14 1
  23   13   19 2
  24   14   15 am
  25   14   16 2
  26   15   20 1
  27   15   33 1
  28   17   18 2
  29   18   19 1
  30   18   34 1
  31   20   22 ar
  32   20   21 ar
  33   21   25 ar
  34   22   23 ar
  35   22   35 1
  36   23   24 ar
  37   23   36 1
  38   24   25 ar
  39   24   28 1
  40   25   37 1

#	End of record

