#	Name: ASD01412048
#	Creating user name:	WinNT
#	Creation time:	15. 06. 2019 19:19

#	Modifying user name:	WinNT
#	Modification time:	15. 06. 2019 19:19

#	Program:	/corina/corina34_cracker 3.40 0067  02.08.2006

@<TRIPOS>MOLECULE
ASD01412048
  57   60    0    0    0
SMALL
NO_CHARGES


@<TRIPOS>ATOM
   1 C1            -0.5452     2.3124    -0.6834 C.ar    
   2 C2            -0.2261     0.9545    -0.7717 C.ar    
   3 C3            -1.2096    -0.0086    -0.6427 C.ar    
   4 C4            -2.5297     0.3701    -0.4235 C.ar    
   5 C5            -2.8485     1.7370    -0.3350 C.ar    
   6 C6            -1.8487     2.7040    -0.4607 C.ar    
   7 N7            -3.5176    -0.5841    -0.2945 N.pl3   
   8 C8            -4.8028    -0.2737    -0.0837 C.2     
   9 C9            -5.2360     1.0335     0.0212 C.2     
  10 C10           -4.2513     2.1214    -0.1026 C.2     
  11 O11           -4.5833     3.2910    -0.0171 O.2     
  12 C12           -3.1446    -1.9974    -0.3929 C.3     
  13 C13           -3.1952    -2.4310    -1.8353 C.ar    
  14 C14           -2.0277    -2.5355    -2.5669 C.ar    
  15 C15           -2.0738    -2.9328    -3.8904 C.ar    
  16 C16           -3.2876    -3.2260    -4.4832 C.ar    
  17 C17           -4.4567    -3.1226    -3.7532 C.ar    
  18 C18           -4.4112    -2.7304    -2.4264 C.ar    
  19 O19            0.4326     3.2493    -0.8118 O.3     
  20 O20            1.0610     0.5779    -0.9864 O.3     
  21 C21            1.3217    -0.8249    -1.0667 C.3     
  22 C22            0.0363     4.6185    -0.7110 C.3     
  23 C23           -6.6561     1.3339     0.2520 C.2     
  24 C24           -7.0831     1.9552     1.5240 C.ar    
  25 O25           -7.4802     1.0713    -0.6034 O.2     
  26 C26           -8.4362     2.2004     1.7651 C.ar    
  27 C27           -8.8277     2.7803     2.9538 C.ar    
  28 C28           -7.8827     3.1194     3.9061 C.ar    
  29 C29           -6.5400     2.8795     3.6734 C.ar    
  30 C30           -6.1354     2.2941     2.4917 C.ar    
  31 C31           -8.3179     3.7531     5.2022 C.3     
  32 F32           -5.5532    -2.6294    -1.7117 F       
  33 C33           -3.3363    -3.6580    -5.9262 C.3     
  34 F34           -3.2293    -5.0510    -5.9998 F       
  35 F35           -4.5491    -3.2528    -6.4936 F       
  36 F36           -2.2756    -3.0713    -6.6247 F       
  37 H37           -0.9527    -1.0553    -0.7124 H       
  38 H38           -2.0962     3.7530    -0.3923 H       
  39 H39           -5.5246    -1.0719     0.0070 H       
  40 H40           -2.1342    -2.1341    -0.0076 H       
  41 H41           -3.8409    -2.5985     0.1918 H       
  42 H42           -1.0788    -2.3064    -2.1049 H       
  43 H43           -1.1608    -3.0139    -4.4616 H       
  44 H44           -5.4050    -3.3514    -4.2167 H       
  45 H45            2.3855    -0.9873    -1.2401 H       
  46 H46            1.0288    -1.3029    -0.1320 H       
  47 H47            0.7498    -1.2543    -1.8892 H       
  48 H48            0.9098     5.2593    -0.8311 H       
  49 H49           -0.6904     4.8448    -1.4912 H       
  50 H50           -0.4127     4.7958     0.2663 H       
  51 H51           -9.1747     1.9369     1.0224 H       
  52 H52           -9.8741     2.9706     3.1416 H       
  53 H53           -5.8075     3.1472     4.4205 H       
  54 H54           -5.0871     2.1070     2.3114 H       
  55 H55           -8.5160     2.9745     5.9389 H       
  56 H56           -7.5280     4.4083     5.5695 H       
  57 H57           -9.2244     4.3350     5.0358 H       
@<TRIPOS>BOND
   1    1    2 ar
   2    1   19 1
   3    1    6 ar
   4    2    3 ar
   5    2   20 1
   6    3    4 ar
   7    3   37 1
   8    4    5 ar
   9    4    7 1
  10    5    6 ar
  11    5   10 1
  12    6   38 1
  13    7    8 1
  14    7   12 1
  15    8    9 2
  16    8   39 1
  17    9   10 1
  18    9   23 1
  19   10   11 2
  20   12   13 1
  21   12   40 1
  22   12   41 1
  23   13   14 ar
  24   13   18 ar
  25   14   15 ar
  26   14   42 1
  27   15   16 ar
  28   15   43 1
  29   16   17 ar
  30   16   33 1
  31   17   18 ar
  32   17   44 1
  33   18   32 1
  34   19   22 1
  35   20   21 1
  36   21   45 1
  37   21   46 1
  38   21   47 1
  39   22   48 1
  40   22   49 1
  41   22   50 1
  42   23   24 1
  43   23   25 2
  44   24   26 ar
  45   24   30 ar
  46   26   27 ar
  47   26   51 1
  48   27   28 ar
  49   27   52 1
  50   28   29 ar
  51   28   31 1
  52   29   30 ar
  53   29   53 1
  54   30   54 1
  55   31   55 1
  56   31   56 1
  57   31   57 1
  58   33   34 1
  59   33   35 1
  60   33   36 1

#	End of record

