#	Name: ASD01000063
#	Creating user name:	WinNT
#	Creation time:	15. 06. 2019 18:54

#	Modifying user name:	WinNT
#	Modification time:	15. 06. 2019 18:54

#	Program:	/corina/corina34_cracker 3.40 0067  02.08.2006

@<TRIPOS>MOLECULE
ASD01000063
  50   52    0    0    0
SMALL
NO_CHARGES


@<TRIPOS>ATOM
   1 C1             0.8420     0.9336     1.9197 C.ar    
   2 C2             1.1703    -0.3620     1.5670 C.ar    
   3 C3             0.8149    -0.8512     0.3239 C.ar    
   4 C4             0.1307    -0.0448    -0.5663 C.ar    
   5 C5            -0.1985     1.2505    -0.2133 C.ar    
   6 C6             0.1582     1.7401     1.0293 C.ar    
   7 C7             1.1737    -2.2633    -0.0609 C.3     
   8 C8             1.2245    -3.1234     1.1755 C.ar    
   9 C9             0.1749    -3.1037     2.0748 C.ar    
  10 C10            0.2215    -3.8926     3.2089 C.ar    
  11 C11            1.3175    -4.7017     3.4435 C.ar    
  12 C12            2.3668    -4.7221     2.5437 C.ar    
  13 C13            2.3182    -3.9364     1.4074 C.ar    
  14 S14           -0.0776    -2.9160    -1.2006 S.3     
  15 C15            0.4065    -4.6543    -1.3861 C.3     
  16 C16           -0.4930    -5.3260    -2.4257 C.3     
  17 N17           -0.1009    -6.7337    -2.5760 N.3     
  18 C18            2.5213    -2.2731    -0.7354 C.ar    
  19 C19            3.6555    -1.9396    -0.0186 C.ar    
  20 C20            2.6240    -2.6210    -2.0691 C.ar    
  21 C21            3.8604    -2.6301    -2.6879 C.ar    
  22 C22            4.9935    -2.2907    -1.9729 C.ar    
  23 C23            4.8915    -1.9486    -0.6372 C.ar    
  24 C24            3.9725    -3.0104    -4.1418 C.3     
  25 C25            3.8328    -1.7576    -5.0089 C.3     
  26 H26            1.1157     1.3143     2.8926 H       
  27 H27            1.7049    -0.9920     2.2626 H       
  28 H28           -0.1464    -0.4267    -1.5378 H       
  29 H29           -0.7324     1.8808    -0.9091 H       
  30 H30           -0.0993     2.7520     1.3052 H       
  31 H31           -0.6815    -2.4716     1.8915 H       
  32 H32           -0.5983    -3.8767     3.9119 H       
  33 H33            1.3543    -5.3175     4.3300 H       
  34 H34            3.2232    -5.3539     2.7272 H       
  35 H35            3.1379    -3.9524     0.7044 H       
  36 H36            1.4445    -4.7093    -1.7140 H       
  37 H37            0.3001    -5.1652    -0.4292 H       
  38 H38           -1.5311    -5.2710    -2.0978 H       
  39 H39           -0.3866    -4.8151    -3.3826 H       
  40 H40           -0.1291    -7.2136    -1.6888 H       
  41 H41           -0.6807    -7.1998    -3.2577 H       
  42 H42            3.5757    -1.6717     1.0246 H       
  43 H43            1.7386    -2.8862    -2.6278 H       
  44 H44            5.9593    -2.2981    -2.4562 H       
  45 H45            5.7769    -1.6834    -0.0786 H       
  46 H46            4.9436    -3.4712    -4.3229 H       
  47 H47            3.1821    -3.7171    -4.3945 H       
  48 H48            2.8618    -1.2967    -4.8277 H       
  49 H49            4.6232    -1.0508    -4.7562 H       
  50 H50            3.9139    -2.0326    -6.0605 H       
@<TRIPOS>BOND
   1    1    2 ar
   2    1    6 ar
   3    1   26 1
   4    2    3 ar
   5    2   27 1
   6    3    4 ar
   7    3    7 1
   8    4    5 ar
   9    4   28 1
  10    5    6 ar
  11    5   29 1
  12    6   30 1
  13    7    8 1
  14    7   14 1
  15    7   18 1
  16    8    9 ar
  17    8   13 ar
  18    9   10 ar
  19    9   31 1
  20   10   11 ar
  21   10   32 1
  22   11   12 ar
  23   11   33 1
  24   12   13 ar
  25   12   34 1
  26   13   35 1
  27   14   15 1
  28   15   16 1
  29   15   36 1
  30   15   37 1
  31   16   17 1
  32   16   38 1
  33   16   39 1
  34   17   40 1
  35   17   41 1
  36   18   19 ar
  37   18   20 ar
  38   19   23 ar
  39   19   42 1
  40   20   21 ar
  41   20   43 1
  42   21   22 ar
  43   21   24 1
  44   22   23 ar
  45   22   44 1
  46   23   45 1
  47   24   25 1
  48   24   46 1
  49   24   47 1
  50   25   48 1
  51   25   49 1
  52   25   50 1

#	End of record

