#	Name: ASD03092808
#	Creating user name:	WinNT
#	Creation time:	15. 06. 2019 20:33

#	Modifying user name:	WinNT
#	Modification time:	15. 06. 2019 20:33

#	Program:	/corina/corina34_cracker 3.40 0067  02.08.2006

@<TRIPOS>MOLECULE
ASD03092808
  49   51    0    0    0
SMALL
NO_CHARGES


@<TRIPOS>ATOM
   1 C1            -0.0187     1.5258     0.0104 C.3     
   2 C2             0.0021    -0.0041     0.0020 C.3     
   3 C3             0.7074    -0.4901    -1.2379 C.2     
   4 O4             1.1502     0.3089    -2.0366 O.2     
   5 C5             0.8586    -1.9270    -1.4788 C.2     
   6 C6             0.3802    -3.0184    -0.6247 C.2     
   7 C7            -0.3663    -2.8856     0.6777 C.3     
   8 C8             0.7427    -4.1723    -1.2409 C.2     
   9 C9             0.4690    -5.5374    -0.7421 C.ar    
  10 C10           -0.0030    -6.5200    -1.6134 C.ar    
  11 C11           -0.2566    -7.7915    -1.1424 C.ar    
  12 C12           -0.0437    -8.0937     0.1920 C.ar    
  13 Cl13          -0.3645    -9.6963     0.7774 Cl      
  14 C14            0.4245    -7.1229     1.0612 C.ar    
  15 C15            0.6871    -5.8494     0.6004 C.ar    
  16 N16            1.4053    -3.8637    -2.4050 N.pl3   
  17 C17            1.4764    -2.5279    -2.5615 C.2     
  18 C18            2.1222    -1.8093    -3.7181 C.3     
  19 C19            1.9273    -4.8041    -3.3027 C.ar    
  20 C20            2.9617    -5.6425    -2.9087 C.ar    
  21 C21            3.4742    -6.5685    -3.7960 C.ar    
  22 C22            2.9587    -6.6609    -5.0758 C.ar    
  23 C23            1.9286    -5.8273    -5.4712 C.ar    
  24 C24            1.4076    -4.9035    -4.5865 C.ar    
  25 S25            3.6161    -7.8428    -6.2053 S.o2    
  26 N26            2.7440    -9.2380    -6.0175 N.am    
  27 O27            3.3228    -7.3586    -7.5086 O.2     
  28 O28            4.9349    -8.1312    -5.7618 O.2     
  29 H29            1.0039     1.9031     0.0027 H       
  30 H30           -0.5459     1.8868    -0.8726 H       
  31 H31           -0.5289     1.8773     0.9072 H       
  32 H32            0.5293    -0.3651     0.8851 H       
  33 H33           -1.0205    -0.3814     0.0098 H       
  34 H34           -1.4382    -2.8615     0.4813 H       
  35 H35           -0.1333    -3.7361     1.3184 H       
  36 H36           -0.0673    -1.9631     1.1754 H       
  37 H37           -0.1698    -6.2853    -2.6543 H       
  38 H38           -0.6223    -8.5527    -1.8157 H       
  39 H39            0.5887    -7.3644     2.1010 H       
  40 H40            1.0569    -5.0943     1.2783 H       
  41 H41            3.1728    -1.6272    -3.4917 H       
  42 H42            2.0450    -2.4228    -4.6158 H       
  43 H43            1.6159    -0.8583    -3.8833 H       
  44 H44            3.3652    -5.5703    -1.9095 H       
  45 H45            4.2787    -7.2209    -3.4902 H       
  46 H46            1.5280    -5.9019    -6.4714 H       
  47 H47            0.5999    -4.2561    -4.8943 H       
  48 H48            2.0234    -9.2761    -5.3693 H       
  49 H49            2.9538   -10.0172    -6.5558 H       
@<TRIPOS>BOND
   1    1    2 1
   2    1   29 1
   3    1   30 1
   4    1   31 1
   5    2    3 1
   6    2   32 1
   7    2   33 1
   8    3    4 2
   9    3    5 1
  10    5   17 2
  11    5    6 1
  12    6    7 1
  13    6    8 2
  14    7   34 1
  15    7   35 1
  16    7   36 1
  17    8    9 1
  18    8   16 1
  19    9   15 ar
  20    9   10 ar
  21   10   11 ar
  22   10   37 1
  23   11   12 ar
  24   11   38 1
  25   12   13 1
  26   12   14 ar
  27   14   15 ar
  28   14   39 1
  29   15   40 1
  30   16   17 1
  31   16   19 1
  32   17   18 1
  33   18   41 1
  34   18   42 1
  35   18   43 1
  36   19   24 ar
  37   19   20 ar
  38   20   21 ar
  39   20   44 1
  40   21   22 ar
  41   21   45 1
  42   22   23 ar
  43   22   25 1
  44   23   24 ar
  45   23   46 1
  46   24   47 1
  47   25   26 am
  48   25   27 2
  49   25   28 2
  50   26   48 1
  51   26   49 1

#	End of record

