#	Name: ASD01411111
#	Creating user name:	WinNT
#	Creation time:	15. 06. 2019 19:19

#	Modifying user name:	WinNT
#	Modification time:	15. 06. 2019 19:19

#	Program:	/corina/corina34_cracker 3.40 0067  02.08.2006

@<TRIPOS>MOLECULE
ASD01411111
  59   61    0    0    0
SMALL
NO_CHARGES


@<TRIPOS>ATOM
   1 C1             0.5439    -0.5268     0.1694 C.3     
   2 C2             1.1122    -1.8542     0.6917 C.3     
   3 O3             1.5771     0.4621     0.1583 O.3     
   4 C4             1.8936    -1.5600     1.9476 C.2     
   5 C5             1.9840     0.9065     1.4585 C.3     
   6 C6             2.2896    -0.3112     2.2986 C.2     
   7 C7             2.3576    -2.4579     2.9737 C.ar    
   8 C8             0.8546     1.7103     2.1062 C.3     
   9 N9             2.9732    -0.3592     3.4791 N.pl3   
  10 C10            2.2481    -3.8544     3.1496 C.ar    
  11 C11            3.0363    -1.6506     3.9233 C.ar    
  12 C12            2.8402    -4.3882     4.3003 C.ar    
  13 C13            3.6136    -2.2172     5.0566 C.ar    
  14 C14            3.4969    -3.5901     5.2148 C.ar    
  15 C15            0.5182     2.9165     1.2272 C.3     
  16 C16            3.2351     1.7789     1.3380 C.3     
  17 N17            3.5587     2.3520     2.6467 N.am    
  18 C18            4.4020     3.3998     2.7337 C.2     
  19 O19            4.8929     3.8682     1.7284 O.2     
  20 C20            4.7349     3.9894     4.0800 C.3     
  21 C21            5.7058     5.1580     3.8990 C.3     
  22 C22            6.0438     5.7566     5.2658 C.3     
  23 C23            7.0146     6.9252     5.0848 C.3     
  24 C24            1.5662    -4.6819     2.2004 C.1     
  25 N25            1.0253    -5.3383     1.4474 N.1     
  26 C26            4.3370    -1.3712     6.0724 C.3     
  27 C27           -0.6936     3.6484     1.8076 C.3     
  28 C28            4.3898     0.9376     0.8585 C.2     
  29 O29            5.2305     0.5632     1.6414 O.2     
  30 O30            4.4844     0.6041    -0.4382 O.3     
  31 H31            0.1643    -0.6671    -0.8427 H       
  32 H32           -0.2669    -0.1978     0.8194 H       
  33 H33            0.2968    -2.5415     0.9169 H       
  34 H34            1.7702    -2.2941    -0.0577 H       
  35 H35           -0.0277     1.0788     2.2098 H       
  36 H36            1.1722     2.0551     3.0903 H       
  37 H37            3.3567     0.4070     3.9337 H       
  38 H38            2.7813    -5.4520     4.4771 H       
  39 H39            3.9365    -4.0519     6.0865 H       
  40 H40            1.3717     3.5938     1.1974 H       
  41 H41            0.2882     2.5772     0.2172 H       
  42 H42            3.0503     2.5824     0.6250 H       
  43 H43            3.1661     1.9775     3.4508 H       
  44 H44            3.8217     4.3462     4.5563 H       
  45 H45            5.1973     3.2266     4.7064 H       
  46 H46            6.6190     4.8013     3.4227 H       
  47 H47            5.2434     5.9208     3.2726 H       
  48 H48            5.1306     6.1134     5.7421 H       
  49 H49            6.5062     4.9938     5.8923 H       
  50 H50            7.9279     6.5685     4.6086 H       
  51 H51            6.5523     7.6880     4.4584 H       
  52 H52            7.2554     7.3517     6.0586 H       
  53 H53            3.6321    -1.0335     6.8321 H       
  54 H54            5.1232    -1.9615     6.5431 H       
  55 H55            4.7789    -0.5068     5.5769 H       
  56 H56           -0.4636     3.9877     2.8176 H       
  57 H57           -0.9333     4.5077     1.1814 H       
  58 H58           -1.5471     2.9711     1.8374 H       
  59 H59            5.2800     0.1277    -0.7121 H       
@<TRIPOS>BOND
   1    1    2 1
   2    1    3 1
   3    1   31 1
   4    1   32 1
   5    2    4 1
   6    2   33 1
   7    2   34 1
   8    3    5 1
   9    4    6 2
  10    4    7 1
  11    5    8 1
  12    5   16 1
  13    5    6 1
  14    6    9 1
  15    7   10 ar
  16    7   11 ar
  17    8   15 1
  18    8   35 1
  19    8   36 1
  20    9   11 1
  21    9   37 1
  22   10   12 ar
  23   10   24 1
  24   11   13 ar
  25   12   14 ar
  26   12   38 1
  27   13   14 ar
  28   13   26 1
  29   14   39 1
  30   15   27 1
  31   15   40 1
  32   15   41 1
  33   16   17 1
  34   16   28 1
  35   16   42 1
  36   17   18 am
  37   17   43 1
  38   18   19 2
  39   18   20 1
  40   20   21 1
  41   20   44 1
  42   20   45 1
  43   21   22 1
  44   21   46 1
  45   21   47 1
  46   22   23 1
  47   22   48 1
  48   22   49 1
  49   23   50 1
  50   23   51 1
  51   23   52 1
  52   24   25 3
  53   26   53 1
  54   26   54 1
  55   26   55 1
  56   27   56 1
  57   27   57 1
  58   27   58 1
  59   28   29 2
  60   28   30 1
  61   30   59 1

#	End of record

