#	Name: ASD01410152
#	Creating user name:	WinNT
#	Creation time:	15. 06. 2019 19:16

#	Modifying user name:	WinNT
#	Modification time:	15. 06. 2019 19:16

#	Program:	/corina/corina34_cracker 3.40 0067  02.08.2006

@<TRIPOS>MOLECULE
ASD01410152
  41   43    0    0    0
SMALL
NO_CHARGES


@<TRIPOS>ATOM
   1 C1            -0.0167     1.3778     0.0096 C.ar    
   2 C2             0.0021    -0.0041     0.0020 C.ar    
   3 C3             1.2107    -0.6794    -0.0131 C.ar    
   4 C4             2.3993     0.0307    -0.0206 C.ar    
   5 C5             2.3781     1.4125    -0.0130 C.ar    
   6 C6             1.1707     2.0857     0.0021 C.ar    
   7 C7             1.1489     3.5926     0.0104 C.3     
   8 N8             0.0755     4.0703    -0.8647 N.pl3   
   9 C9             0.1543     5.3176    -1.4280 C.2     
  10 N10            1.1267     6.1848    -1.2720 N.2     
  11 C11            1.0780     7.3541    -1.8732 C.2     
  12 C12           -0.1194     7.5735    -2.6952 C.2     
  13 S13           -1.0343     6.0627    -2.5118 S.3     
  14 C14           -0.4477     8.6742    -3.4298 C.2     
  15 C15           -1.6557     8.6998    -4.1632 C.2     
  16 O16           -2.5705     7.7095    -4.2241 O.3     
  17 C17           -3.5850     8.0873    -5.0147 C.2     
  18 C18           -3.3418     9.3330    -5.4798 C.2     
  19 C19           -2.1138     9.7450    -4.9410 C.2     
  20 F20            1.2302    -2.0303    -0.0201 F       
  21 O21            1.9593     8.1918    -1.7566 O.2     
  22 C22           -4.8011     7.2565    -5.3341 C.3     
  23 C23           -4.5307     6.4161    -6.5837 C.3     
  24 C24            0.9083     4.0837     1.4146 C.2     
  25 O25           -0.0605     4.7631     1.6593 O.2     
  26 O26            1.7702     3.7665     2.3935 O.3     
  27 H27           -0.9593     1.9048     0.0169 H       
  28 H28           -0.9257    -0.5570     0.0082 H       
  29 H29            3.3426    -0.4950    -0.0321 H       
  30 H30            3.3051     1.9666    -0.0185 H       
  31 H31            2.1059     3.9717    -0.3482 H       
  32 H32           -0.6910     3.5040    -1.0456 H       
  33 H33            0.2152     9.5266    -3.4512 H       
  34 H34           -3.9766     9.9060    -6.1394 H       
  35 H35           -1.6200    10.6910    -5.1077 H       
  36 H36           -5.0221     6.5980    -4.4941 H       
  37 H37           -5.6523     7.9129    -5.5149 H       
  38 H38           -4.3097     7.0746    -7.4237 H       
  39 H39           -3.6795     5.7597    -6.4029 H       
  40 H40           -5.4103     5.8152    -6.8147 H       
  41 H41            1.5738     4.1046     3.2780 H       
@<TRIPOS>BOND
   1    1    2 ar
   2    1    6 ar
   3    1   27 1
   4    2    3 ar
   5    2   28 1
   6    3    4 ar
   7    3   20 1
   8    4    5 ar
   9    4   29 1
  10    5    6 ar
  11    5   30 1
  12    6    7 1
  13    7    8 1
  14    7   24 1
  15    7   31 1
  16    8    9 1
  17    8   32 1
  18    9   10 2
  19    9   13 1
  20   10   11 1
  21   11   12 1
  22   11   21 2
  23   12   13 1
  24   12   14 2
  25   14   15 1
  26   14   33 1
  27   15   16 1
  28   15   19 2
  29   16   17 1
  30   17   18 2
  31   17   22 1
  32   18   19 1
  33   18   34 1
  34   19   35 1
  35   22   23 1
  36   22   36 1
  37   22   37 1
  38   23   38 1
  39   23   39 1
  40   23   40 1
  41   24   25 2
  42   24   26 1
  43   26   41 1

#	End of record

