#	Name: ASD01815670
#	Creating user name:	WinNT
#	Creation time:	15. 06. 2019 19:33

#	Modifying user name:	WinNT
#	Modification time:	15. 06. 2019 19:33

#	Program:	/corina/corina34_cracker 3.40 0067  02.08.2006

@<TRIPOS>MOLECULE
ASD01815670
  55   57    0    0    0
SMALL
NO_CHARGES


@<TRIPOS>ATOM
   1 C1            -0.0169     1.3917     0.0097 C.ar    
   2 C2             0.0021    -0.0041     0.0020 C.ar    
   3 C3             1.2506     2.1513     0.0017 C.2     
   4 O4             1.2308     3.3667     0.0084 O.2     
   5 N5             2.4286     1.4966    -0.0131 N.am    
   6 C6             3.6851     2.2497    -0.0210 C.3     
   7 C7             4.7896     1.3942    -0.6459 C.3     
   8 N8             6.0541     2.1408    -0.6349 N.3     
   9 C9             6.4731     2.4553     0.7369 C.3     
  10 C10            5.4190     3.3424     1.4030 C.3     
  11 C11            4.0752     2.6084     1.4155 C.3     
  12 C12            7.1054     1.4061    -1.3512 C.3     
  13 C13            8.3683     2.2672    -1.4263 C.3     
  14 C14            9.4509     1.5120    -2.2037 C.3     
  15 N15            9.6528     0.1980    -1.5781 N.am    
  16 C16            8.4879    -0.6741    -1.3750 C.3     
  17 C17            7.4161     0.1056    -0.6068 C.3     
  18 C18           10.8831    -0.1999    -1.1981 C.2     
  19 O19           11.8385     0.5305    -1.3718 O.2     
  20 O20           11.0535    -1.4067    -0.6259 O.3     
  21 C21           12.4062    -1.7691    -0.2420 C.3     
  22 C22           12.4015    -3.1640     0.3865 C.3     
  23 C23           -1.1846    -0.7072     0.0096 C.ar    
  24 C24           -2.3928    -0.0327     0.0248 C.ar    
  25 C25           -2.4204     1.3501     0.0321 C.ar    
  26 C26           -1.2400     2.0672     0.0192 C.ar    
  27 Cl27          -1.2758     3.8028     0.0289 Cl      
  28 H28            0.9440    -0.5324    -0.0102 H       
  29 H29            2.4444     0.5267    -0.0185 H       
  30 H30            3.5586     3.1625    -0.6031 H       
  31 H31            4.9056     0.4749    -0.0718 H       
  32 H32            4.5215     1.1490    -1.6735 H       
  33 H33            6.5812     1.5311     1.3045 H       
  34 H34            7.4278     2.9808     0.7135 H       
  35 H35            5.7228     3.5628     2.4263 H       
  36 H36            5.3202     4.2728     0.8437 H       
  37 H37            3.3117     3.2537     1.8500 H       
  38 H38            4.1634     1.6973     2.0073 H       
  39 H39            6.7635     1.1742    -2.3599 H       
  40 H40            8.1406     3.2034    -1.9360 H       
  41 H41            8.7249     2.4786    -0.4182 H       
  42 H42            9.1329     1.3793    -3.2378 H       
  43 H43           10.3825     2.0771    -2.1754 H       
  44 H44            8.0913    -0.9851    -2.3415 H       
  45 H45            8.7842    -1.5514    -0.7999 H       
  46 H46            7.7817     0.3374     0.3935 H       
  47 H47            6.5107    -0.4968    -0.5333 H       
  48 H48           13.0463    -1.7702    -1.1242 H       
  49 H49           12.7848    -1.0462     0.4807 H       
  50 H50           12.0229    -3.8869    -0.3361 H       
  51 H51           13.4169    -3.4361     0.6747 H       
  52 H52           11.7614    -3.1629     1.2688 H       
  53 H53           -1.1708    -1.7871     0.0033 H       
  54 H54           -3.3187    -0.5887     0.0307 H       
  55 H55           -3.3668     1.8703     0.0432 H       
@<TRIPOS>BOND
   1    1    2 ar
   2    1    3 1
   3    1   26 ar
   4    2   23 ar
   5    2   28 1
   6    3    4 2
   7    3    5 am
   8    5    6 1
   9    5   29 1
  10    6    7 1
  11    6   11 1
  12    6   30 1
  13    7    8 1
  14    7   31 1
  15    7   32 1
  16    8    9 1
  17    8   12 1
  18    9   10 1
  19    9   33 1
  20    9   34 1
  21   10   11 1
  22   10   35 1
  23   10   36 1
  24   11   37 1
  25   11   38 1
  26   12   13 1
  27   12   17 1
  28   12   39 1
  29   13   14 1
  30   13   40 1
  31   13   41 1
  32   14   15 1
  33   14   42 1
  34   14   43 1
  35   15   16 1
  36   15   18 am
  37   16   17 1
  38   16   44 1
  39   16   45 1
  40   17   46 1
  41   17   47 1
  42   18   19 2
  43   18   20 1
  44   20   21 1
  45   21   22 1
  46   21   48 1
  47   21   49 1
  48   22   50 1
  49   22   51 1
  50   22   52 1
  51   23   24 ar
  52   23   53 1
  53   24   25 ar
  54   24   54 1
  55   25   26 ar
  56   25   55 1
  57   26   27 1

#	End of record

