#	Name: ASD01881395
#	Creating user name:	WinNT
#	Creation time:	15. 06. 2019 19:42

#	Modifying user name:	WinNT
#	Modification time:	15. 06. 2019 19:42

#	Program:	/corina/corina34_cracker 3.40 0067  02.08.2006

@<TRIPOS>MOLECULE
ASD01881395
  34   36    0    0    0
SMALL
NO_CHARGES


@<TRIPOS>ATOM
   1 C1             1.6106     1.5943    -1.3976 C.2     
   2 C2             1.3687     2.2471    -0.0546 C.3     
   3 C3             2.3866     1.6921     0.9472 C.3     
   4 C4             2.3021     0.1650     0.9644 C.3     
   5 C5             2.6968    -0.3917    -0.4045 C.3     
   6 C6             1.6905     0.0849    -1.4572 C.3     
   7 O7             1.7318     2.2608    -2.3973 O.2     
   8 O8             5.0385     0.2471     4.0738 O.3     
   9 C9             5.4796    -0.4207     2.8870 C.3     
  10 C10            4.5970     0.0523     1.7244 C.3     
  11 N11            3.2143    -0.3630     1.9877 N.3     
  12 C12            2.7911    -0.0015     3.2713 C.ar    
  13 C13            3.6944     0.2921     4.2862 C.ar    
  14 C14            1.4257     0.0619     3.5287 C.ar    
  15 C15            0.9699     0.4111     4.7848 C.ar    
  16 C16            1.8703     0.7000     5.7939 C.ar    
  17 C17            3.2295     0.6406     5.5460 C.ar    
  18 Br18           1.2428     1.1765     7.5130 Br      
  19 H19            1.4940     3.3262    -0.1442 H       
  20 H20            0.3585     2.0201     0.2861 H       
  21 H21            3.3906     1.9974     0.6522 H       
  22 H22            2.1662     2.0797     1.9419 H       
  23 H23            1.2818    -0.1388     1.1986 H       
  24 H24            3.6934    -0.0371    -0.6675 H       
  25 H25            2.6961    -1.4811    -0.3679 H       
  26 H26            0.7101    -0.3423    -1.2463 H       
  27 H27            2.0226    -0.2253    -2.4480 H       
  28 H28            6.5206    -0.1673     2.6865 H       
  29 H29            5.3791    -1.4988     3.0115 H       
  30 H30            4.6447     1.1385     1.6471 H       
  31 H31            4.9438    -0.3989     0.7947 H       
  32 H32            0.7192    -0.1624     2.7433 H       
  33 H33           -0.0914     0.4590     4.9792 H       
  34 H34            3.9311     0.8663     6.3354 H       
@<TRIPOS>BOND
   1    1    2 1
   2    1    6 1
   3    1    7 2
   4    2    3 1
   5    2   19 1
   6    2   20 1
   7    3    4 1
   8    3   21 1
   9    3   22 1
  10    4    5 1
  11    4   11 1
  12    4   23 1
  13    5    6 1
  14    5   24 1
  15    5   25 1
  16    6   26 1
  17    6   27 1
  18    8    9 1
  19    8   13 1
  20    9   10 1
  21    9   28 1
  22    9   29 1
  23   10   11 1
  24   10   30 1
  25   10   31 1
  26   11   12 1
  27   12   13 ar
  28   12   14 ar
  29   13   17 ar
  30   14   15 ar
  31   14   32 1
  32   15   16 ar
  33   15   33 1
  34   16   17 ar
  35   16   18 1
  36   17   34 1

#	End of record

