#	Name: ASD03330789
#	Creating user name:	WinNT
#	Creation time:	15. 06. 2019 20:37

#	Modifying user name:	WinNT
#	Modification time:	15. 06. 2019 20:37

#	Program:	/corina/corina34_cracker 3.40 0067  02.08.2006

@<TRIPOS>MOLECULE
ASD03330789
  57   59    0    0    0
SMALL
NO_CHARGES


@<TRIPOS>ATOM
   1 C1             0.0751     1.2621     0.0501 C.2     
   2 N2             0.1652    -0.0539     0.3806 N.pl3   
   3 C3             1.3212     1.7946     0.1836 C.2     
   4 N4             2.1535     0.8038     0.5734 N.2     
   5 C5             1.4693    -0.3105     0.6885 C.2     
   6 C6             2.0200    -1.6242     1.0852 C.ar    
   7 C7             1.6953     3.1997    -0.0551 C.2     
   8 O8             0.8517     4.0025    -0.4059 O.2     
   9 C9             3.3445     4.9922    -0.1220 C.3     
  10 N10            2.9724     3.5952     0.1153 N.am    
  11 C11            3.6338     5.1971    -1.6103 C.3     
  12 C12            4.5756     5.3273     0.6799 C.2     
  13 O13            5.3652     4.4544     0.9721 O.2     
  14 C14           -0.9524    -1.0016     0.4080 C.3     
  15 C15           -1.7689    -0.8527    -0.8795 C.3     
  16 C16           -2.8294     0.2281    -0.6956 C.3     
  17 N17           -2.3464     1.2966     0.1812 N.3     
  18 C18           -1.1758     1.9737    -0.3963 C.3     
  19 C19            1.3721    -2.3913     2.0546 C.ar    
  20 C20            1.8906    -3.6171     2.4213 C.ar    
  21 C21           -3.4168     2.2577     0.4787 C.3     
  22 N22            4.7992     6.5971     1.0723 N.am    
  23 C23            3.0542    -4.0873     1.8277 C.ar    
  24 C24            2.3497     4.9821    -2.4139 C.3     
  25 C25            4.1462     6.6205    -1.8390 C.3     
  26 C26            4.6949     4.1937    -2.0665 C.3     
  27 C27            3.1876    -2.1045     0.4868 C.ar    
  28 C28            3.7011    -3.3306     0.8656 C.ar    
  29 F29            3.5575    -5.2874     2.1907 F       
  30 F30            3.8165    -1.3694    -0.4562 F       
  31 F31            1.2646    -4.3604     3.3599 F       
  32 H32            2.5247     5.6431     0.1818 H       
  33 H33            3.6452     2.9549     0.3951 H       
  34 H34           -0.5661    -2.0184     0.4790 H       
  35 H35           -1.5874    -0.7912     1.2686 H       
  36 H36           -1.1062    -0.5745    -1.6989 H       
  37 H37           -2.2540    -1.8005    -1.1127 H       
  38 H38           -3.0821     0.6503    -1.6682 H       
  39 H39           -3.7223    -0.2179    -0.2575 H       
  40 H40           -1.1480     3.0085    -0.0549 H       
  41 H41           -1.2405     1.9493    -1.4841 H       
  42 H42            0.4671    -2.0265     2.5173 H       
  43 H43           -4.2394     1.7431     0.9754 H       
  44 H44           -3.0310     3.0406     1.1316 H       
  45 H45           -3.7742     2.7024    -0.4500 H       
  46 H46            4.1347     7.2823     0.8995 H       
  47 H47            5.6246     6.8259     1.5276 H       
  48 H48            1.5937     5.6970    -2.0889 H       
  49 H49            2.5558     5.1281    -3.4742 H       
  50 H50            1.9846     3.9681    -2.2510 H       
  51 H51            5.1125     6.7419    -1.3493 H       
  52 H52            4.2559     6.7998    -2.9085 H       
  53 H53            3.4354     7.3339    -1.4220 H       
  54 H54            4.3298     3.1796    -1.9036 H       
  55 H55            4.9010     4.3397    -3.1268 H       
  56 H56            5.6097     4.3468    -1.4940 H       
  57 H57            4.6035    -3.7029     0.4037 H       
@<TRIPOS>BOND
   1    1    2 1
   2    1    3 2
   3    1   18 1
   4    2   14 1
   5    2    5 1
   6    3    4 1
   7    3    7 1
   8    4    5 2
   9    5    6 1
  10    6   27 ar
  11    6   19 ar
  12    7    8 2
  13    7   10 am
  14    9   10 1
  15    9   11 1
  16    9   12 1
  17    9   32 1
  18   10   33 1
  19   11   24 1
  20   11   25 1
  21   11   26 1
  22   12   13 2
  23   12   22 am
  24   14   15 1
  25   14   34 1
  26   14   35 1
  27   15   16 1
  28   15   36 1
  29   15   37 1
  30   16   17 1
  31   16   38 1
  32   16   39 1
  33   17   18 1
  34   17   21 1
  35   18   40 1
  36   18   41 1
  37   19   20 ar
  38   19   42 1
  39   20   31 1
  40   20   23 ar
  41   21   43 1
  42   21   44 1
  43   21   45 1
  44   22   46 1
  45   22   47 1
  46   23   29 1
  47   23   28 ar
  48   24   48 1
  49   24   49 1
  50   24   50 1
  51   25   51 1
  52   25   52 1
  53   25   53 1
  54   26   54 1
  55   26   55 1
  56   26   56 1
  57   27   28 ar
  58   27   30 1
  59   28   57 1

#	End of record

