#	Name: ASD01815889
#	Creating user name:	WinNT
#	Creation time:	15. 06. 2019 19:34

#	Modifying user name:	WinNT
#	Modification time:	15. 06. 2019 19:34

#	Program:	/corina/corina34_cracker 3.40 0067  02.08.2006

@<TRIPOS>MOLECULE
ASD01815889
  54   59    0    0    0
SMALL
NO_CHARGES


@<TRIPOS>ATOM
   1 C1             0.1064     1.4783     0.3815 C.ar    
   2 C2             0.0862     0.0932     0.3727 C.ar    
   3 C3             1.2565    -0.6271     0.2340 C.ar    
   4 C4             2.4729     0.0371     0.1007 C.ar    
   5 C5             2.4904     1.4412     0.1094 C.ar    
   6 C6             1.3032     2.1568     0.2504 C.ar    
   7 N7             3.6500    -0.6795    -0.0383 N.pl3   
   8 C8             4.8508    -0.0941    -0.1700 C.2     
   9 C9             4.9914     1.2715    -0.1756 C.2     
  10 C10            3.7897     2.1249    -0.0333 C.2     
  11 C11            6.1082     2.2037    -0.2947 C.2     
  12 N12            5.5739     3.4420    -0.2249 N.am    
  13 N13            4.1876     3.3642    -0.0688 N.2     
  14 C14            6.3047     4.6335    -0.2983 C.ar    
  15 O15            7.2875     1.9209    -0.4297 O.2     
  16 C16            3.5814    -2.1429    -0.0411 C.3     
  17 C17            3.4352    -2.6362    -1.4576 C.ar    
  18 C18            4.5548    -2.7853    -2.2553 C.ar    
  19 C19            4.4239    -3.2368    -3.5541 C.ar    
  20 C20            3.1667    -3.5414    -4.0583 C.ar    
  21 C21            2.0445    -3.3911    -3.2547 C.ar    
  22 C22            2.1823    -2.9441    -1.9551 C.ar    
  23 N23            3.0305    -3.9994    -5.3762 N.pl3   
  24 C24            1.8708    -4.3297    -5.9881 C.2     
  25 F25            1.3219     3.5076     0.2586 F       
  26 F26            1.2210    -1.9776     0.2282 F       
  27 C27            2.1677    -4.7220    -7.2487 C.2     
  28 C28            3.5540    -4.6286    -7.4137 C.2     
  29 N29            4.0712    -4.1900    -6.2944 N.2     
  30 C30            6.1956     5.5801     0.7121 C.ar    
  31 C31            7.1450     4.8693    -1.3791 C.ar    
  32 C32            7.8649     6.0455    -1.4482 C.ar    
  33 C33            7.7501     6.9885    -0.4429 C.ar    
  34 C34            6.9185     6.7547     0.6368 C.ar    
  35 C35            5.2892     5.3263     1.8889 C.3     
  36 H36           -0.8163     2.0295     0.4865 H       
  37 H37           -0.8538    -0.4285     0.4757 H       
  38 H38            5.7293    -0.7137    -0.2740 H       
  39 H39            4.4945    -2.5503     0.3930 H       
  40 H40            2.7231    -2.4676     0.5471 H       
  41 H41            5.5325    -2.5482    -1.8626 H       
  42 H42            5.2986    -3.3524    -4.1769 H       
  43 H43            1.0652    -3.6269    -3.6443 H       
  44 H44            1.3097    -2.8270    -1.3296 H       
  45 H45            0.8848    -4.2886    -5.5494 H       
  46 H46            1.4596    -5.0493    -7.9956 H       
  47 H47            4.1024    -4.8722    -8.3117 H       
  48 H48            7.2354     4.1332    -2.1642 H       
  49 H49            8.5187     6.2293    -2.2880 H       
  50 H50            8.3142     7.9077    -0.4993 H       
  51 H51            6.8308     7.4932     1.4200 H       
  52 H52            5.8480     4.8185     2.6750 H       
  53 H53            4.9108     6.2758     2.2675 H       
  54 H54            4.4532     4.7011     1.5755 H       
@<TRIPOS>BOND
   1    1    2 ar
   2    1    6 ar
   3    1   36 1
   4    2    3 ar
   5    2   37 1
   6    3    4 ar
   7    3   26 1
   8    4    5 ar
   9    4    7 1
  10    5    6 ar
  11    5   10 1
  12    6   25 1
  13    7    8 1
  14    7   16 1
  15    8    9 2
  16    8   38 1
  17    9   10 1
  18    9   11 1
  19   10   13 2
  20   11   12 am
  21   11   15 2
  22   12   13 1
  23   12   14 1
  24   14   30 ar
  25   14   31 ar
  26   16   17 1
  27   16   39 1
  28   16   40 1
  29   17   18 ar
  30   17   22 ar
  31   18   19 ar
  32   18   41 1
  33   19   20 ar
  34   19   42 1
  35   20   21 ar
  36   20   23 1
  37   21   22 ar
  38   21   43 1
  39   22   44 1
  40   23   24 1
  41   23   29 1
  42   24   27 2
  43   24   45 1
  44   27   28 1
  45   27   46 1
  46   28   29 2
  47   28   47 1
  48   30   35 1
  49   30   34 ar
  50   31   32 ar
  51   31   48 1
  52   32   33 ar
  53   32   49 1
  54   33   34 ar
  55   33   50 1
  56   34   51 1
  57   35   52 1
  58   35   53 1
  59   35   54 1

#	End of record

