#	Name: ASD01230481
#	Creating user name:	WinNT
#	Creation time:	15. 06. 2019 19:14

#	Modifying user name:	WinNT
#	Modification time:	15. 06. 2019 19:14

#	Program:	/corina/corina34_cracker 3.40 0067  02.08.2006

@<TRIPOS>MOLECULE
ASD01230481
  56   58    0    0    0
SMALL
NO_CHARGES


@<TRIPOS>ATOM
   1 S1            -0.0203     1.6432     0.0111 S.o2    
   2 N2             0.0021    -0.0041     0.0020 N.am    
   3 C3             1.0565    -0.7105    -0.1009 C.2     
   4 N4             2.3195    -0.1992    -0.2593 N.pl3   
   5 C5             2.5396     1.1369    -0.8015 C.3     
   6 C6             1.7188     2.1515    -0.0028 C.3     
   7 C7             0.9676    -2.2277    -0.0654 C.3     
   8 C8             2.0219    -2.7686    -1.0345 C.3     
   9 C9             3.4262    -2.3703    -0.6005 C.3     
  10 C10            3.4480    -1.0429     0.1478 C.3     
  11 C11           -0.4051    -2.6712    -0.5014 C.ar    
  12 C12           -1.1998    -3.4041     0.3606 C.ar    
  13 C13           -2.4584    -3.8118    -0.0367 C.ar    
  14 C14           -2.9249    -3.4853    -1.3018 C.ar    
  15 C15           -2.1256    -2.7498    -2.1648 C.ar    
  16 C16           -0.8699    -2.3396    -1.7607 C.ar    
  17 O17           -4.1626    -3.8856    -1.6952 O.3     
  18 Si18          -5.3465    -2.8189    -1.3477 Si      
  19 C19           -5.4162    -2.5468     0.4940 C.3     
  20 C20           -4.9948    -1.2009    -2.2016 C.3     
  21 C21           -6.9806    -3.4906    -1.9385 C.3     
  22 C22           -7.2695    -4.8193    -1.2372 C.3     
  23 C23           -8.0912    -2.4899    -1.6125 C.3     
  24 C24           -6.9234    -3.7141    -3.4510 C.3     
  25 O25           -0.6472     1.9882    -1.2166 O.2     
  26 O26           -0.6236     1.9749     1.2541 O.2     
  27 H27            3.5978     1.3884    -0.7299 H       
  28 H28            2.2300     1.1608    -1.8463 H       
  29 H29            1.8064     3.1345    -0.4654 H       
  30 H30            2.0924     2.1965     1.0202 H       
  31 H31            1.1716    -2.5875     0.9431 H       
  32 H32            1.9530    -3.8559    -1.0667 H       
  33 H33            1.8294    -2.3698    -2.0305 H       
  34 H34            3.8290    -3.1480     0.0483 H       
  35 H35            4.0588    -2.2878    -1.4843 H       
  36 H36            4.3813    -0.5235    -0.0697 H       
  37 H37            3.3855    -1.2337     1.2192 H       
  38 H38           -0.8360    -3.6583     1.3452 H       
  39 H39           -3.0787    -4.3846     0.6368 H       
  40 H40           -2.4865    -2.4944    -3.1502 H       
  41 H41           -0.2491    -1.7630    -2.4304 H       
  42 H42           -4.4601    -2.1538     0.8397 H       
  43 H43           -6.2074    -1.8339     0.7262 H       
  44 H44           -5.6220    -3.4934     0.9936 H       
  45 H45           -4.9540    -1.3601    -3.2792 H       
  46 H46           -5.7860    -0.4880    -1.9694 H       
  47 H47           -4.0387    -0.8079    -1.8559 H       
  48 H48           -7.3103    -4.6601    -0.1597 H       
  49 H49           -8.2256    -5.2123    -1.5829 H       
  50 H50           -6.4783    -5.5322    -1.4694 H       
  51 H51           -7.8854    -1.5433    -2.1122 H       
  52 H52           -9.0473    -2.8829    -1.9582 H       
  53 H53           -8.1320    -2.3307    -0.5350 H       
  54 H54           -6.1322    -4.4270    -3.6832 H       
  55 H55           -7.8795    -4.1070    -3.7967 H       
  56 H56           -6.7176    -2.7674    -3.9506 H       
@<TRIPOS>BOND
   1    1    2 am
   2    1    6 1
   3    1   25 2
   4    1   26 2
   5    2    3 2
   6    3    4 1
   7    3    7 1
   8    4    5 1
   9    4   10 1
  10    5    6 1
  11    5   27 1
  12    5   28 1
  13    6   29 1
  14    6   30 1
  15    7    8 1
  16    7   11 1
  17    7   31 1
  18    8    9 1
  19    8   32 1
  20    8   33 1
  21    9   10 1
  22    9   34 1
  23    9   35 1
  24   10   36 1
  25   10   37 1
  26   11   12 ar
  27   11   16 ar
  28   12   13 ar
  29   12   38 1
  30   13   14 ar
  31   13   39 1
  32   14   15 ar
  33   14   17 1
  34   15   16 ar
  35   15   40 1
  36   16   41 1
  37   17   18 1
  38   18   19 1
  39   18   20 1
  40   18   21 1
  41   19   42 1
  42   19   43 1
  43   19   44 1
  44   20   45 1
  45   20   46 1
  46   20   47 1
  47   21   22 1
  48   21   24 1
  49   21   23 1
  50   22   48 1
  51   22   49 1
  52   22   50 1
  53   23   51 1
  54   23   52 1
  55   23   53 1
  56   24   54 1
  57   24   55 1
  58   24   56 1

#	End of record

