#	Name: ASD04880424
#	Creating user name:	WinNT
#	Creation time:	15. 06. 2019 20:53

#	Modifying user name:	WinNT
#	Modification time:	15. 06. 2019 20:53

#	Program:	/corina/corina34_cracker 3.40 0067  02.08.2006

@<TRIPOS>MOLECULE
ASD04880424
  47   49    0    0    0
SMALL
NO_CHARGES


@<TRIPOS>ATOM
   1 C1            -0.0144     1.2119     0.0087 C.2     
   2 O2             0.0391    -0.0028     0.0319 O.2     
   3 N3             1.1212     1.9355    -0.0487 N.am    
   4 N4             1.1939     3.3196    -0.1919 N.2     
   5 C5             2.3958     3.7833    -0.2211 C.2     
   6 C6             3.3803     2.6436    -0.0866 C.3     
   7 C7             2.4867     1.3935     0.0360 C.3     
   8 C8             2.7081     0.6998     1.3816 C.3     
   9 C9             2.7551     0.4276    -1.1199 C.3     
  10 C10            2.7556     5.2057    -0.3642 C.ar    
  11 C11            1.7539     6.1734    -0.4810 C.ar    
  12 C12            2.0967     7.5054    -0.6144 C.ar    
  13 C13            3.4386     7.8812    -0.6327 C.ar    
  14 C14            4.4329     6.9212    -0.5173 C.ar    
  15 C15            4.0984     5.5904    -0.3776 C.ar    
  16 O16            3.7737     9.1920    -0.7644 O.3     
  17 C17            5.1675     9.5073    -0.7756 C.3     
  18 O18            1.1246     8.4496    -0.7282 O.3     
  19 C19           -0.2293     7.9932    -0.7021 C.3     
  20 C20           -1.3239     1.8940     0.0373 C.ar    
  21 C21           -2.5033     1.1510    -0.0543 C.ar    
  22 C22           -3.7242     1.7940    -0.0271 C.ar    
  23 C23           -3.7801     3.1767     0.0910 C.ar    
  24 C24           -2.6121     3.9168     0.1816 C.ar    
  25 C25           -1.3875     3.2834     0.1616 C.ar    
  26 F26           -4.9772     3.8022     0.1173 F       
  27 F27           -4.8662     1.0777    -0.1159 F       
  28 H28            4.0143     2.5797    -0.9710 H       
  29 H29            3.9860     2.7655     0.8113 H       
  30 H30            2.0133    -0.1343     1.4791 H       
  31 H31            3.7315     0.3285     1.4348 H       
  32 H32            2.5373     1.4113     2.1895 H       
  33 H33            2.6173     0.9479    -2.0677 H       
  34 H34            3.7783     0.0576    -1.0540 H       
  35 H35            2.0611    -0.4108    -1.0614 H       
  36 H36            0.7143     5.8808    -0.4673 H       
  37 H37            5.4715     7.2169    -0.5323 H       
  38 H38            4.8746     4.8454    -0.2831 H       
  39 H39            5.6212     9.1817     0.1604 H       
  40 H40            5.6488     8.9967    -1.6097 H       
  41 H41            5.2955    10.5841    -0.8862 H       
  42 H42           -0.9019     8.8451    -0.8016 H       
  43 H43           -0.3953     7.3009    -1.5275 H       
  44 H44           -0.4234     7.4854     0.2426 H       
  45 H45           -2.4598     0.0758    -0.1465 H       
  46 H46           -2.6612     4.9919     0.2726 H       
  47 H47           -0.4785     3.8616     0.2376 H       
@<TRIPOS>BOND
   1    1    2 2
   2    1    3 am
   3    1   20 1
   4    3    4 1
   5    3    7 1
   6    4    5 2
   7    5    6 1
   8    5   10 1
   9    6    7 1
  10    6   28 1
  11    6   29 1
  12    7    8 1
  13    7    9 1
  14    8   30 1
  15    8   31 1
  16    8   32 1
  17    9   33 1
  18    9   34 1
  19    9   35 1
  20   10   11 ar
  21   10   15 ar
  22   11   12 ar
  23   11   36 1
  24   12   13 ar
  25   12   18 1
  26   13   14 ar
  27   13   16 1
  28   14   15 ar
  29   14   37 1
  30   15   38 1
  31   16   17 1
  32   17   39 1
  33   17   40 1
  34   17   41 1
  35   18   19 1
  36   19   42 1
  37   19   43 1
  38   19   44 1
  39   20   21 ar
  40   20   25 ar
  41   21   22 ar
  42   21   45 1
  43   22   23 ar
  44   22   27 1
  45   23   24 ar
  46   23   26 1
  47   24   25 ar
  48   24   46 1
  49   25   47 1

#	End of record

