#	Name: ASD03091040
#	Creating user name:	WinNT
#	Creation time:	15. 06. 2019 20:29

#	Modifying user name:	WinNT
#	Modification time:	15. 06. 2019 20:29

#	Program:	/corina/corina34_cracker 3.40 0067  02.08.2006

@<TRIPOS>MOLECULE
ASD03091040
  34   34    0    0    0
SMALL
NO_CHARGES


@<TRIPOS>ATOM
   1 C1             0.4278     1.4331    -0.2709 C.2     
   2 C2             0.2183    -0.0241    -0.1343 C.ar    
   3 C3             0.7087    -0.7007     0.9839 C.ar    
   4 C4             0.5107    -2.0603     1.1065 C.ar    
   5 C5            -0.1726    -2.7549     0.1244 C.ar    
   6 C6            -0.6625    -2.0905    -0.9884 C.ar    
   7 C7            -0.4753    -0.7274    -1.1197 C.ar    
   8 O8             1.5543     1.8893    -0.2552 O.2     
   9 N9            -0.6301     2.2551    -0.4185 N.am    
  10 N10            1.4406     0.0396     2.0361 N.pl3   
  11 O11            1.9806    -0.5670     2.9439 O.2     
  12 O12            1.5028     1.2553     1.9942 O.2     
  13 C13           -0.4226     3.6990    -0.5539 C.3     
  14 C14           -1.7757     4.3966    -0.7064 C.3     
  15 C15           -1.5589     5.9046    -0.8478 C.3     
  16 C16           -2.4862     3.8645    -1.9525 C.3     
  17 C17           -2.6350     4.1185     0.5285 C.3     
  18 O18           -2.8227     6.5562    -0.9903 O.3     
  19 F19           -1.3288    -2.7751    -1.9436 F       
  20 H20            0.8903    -2.5840     1.9714 H       
  21 H21           -0.3246    -3.8194     0.2254 H       
  22 H22           -0.8610    -0.2089    -1.9850 H       
  23 H23           -1.5289     1.8906    -0.4351 H       
  24 H24            0.0837     4.0781     0.3339 H       
  25 H25            0.1896     3.8972    -1.4337 H       
  26 H26           -1.0527     6.2837     0.0399 H       
  27 H27           -0.9468     6.1028    -1.7276 H       
  28 H28           -2.6407     2.7902    -1.8518 H       
  29 H29           -3.4502     4.3615    -2.0612 H       
  30 H30           -1.8741     4.0626    -2.8323 H       
  31 H31           -2.1287     4.4976     1.4163 H       
  32 H32           -3.5990     4.6155     0.4199 H       
  33 H33           -2.7894     3.0442     0.6293 H       
  34 H34           -2.7616     7.5166    -1.0849 H       
@<TRIPOS>BOND
   1    1    2 1
   2    1    8 2
   3    1    9 am
   4    2    3 ar
   5    2    7 ar
   6    3    4 ar
   7    3   10 1
   8    4    5 ar
   9    4   20 1
  10    5    6 ar
  11    5   21 1
  12    6    7 ar
  13    6   19 1
  14    7   22 1
  15    9   13 1
  16    9   23 1
  17   10   11 2
  18   10   12 2
  19   13   14 1
  20   13   24 1
  21   13   25 1
  22   14   15 1
  23   14   16 1
  24   14   17 1
  25   15   18 1
  26   15   26 1
  27   15   27 1
  28   16   28 1
  29   16   29 1
  30   16   30 1
  31   17   31 1
  32   17   32 1
  33   17   33 1
  34   18   34 1

#	End of record

