#	Name: ASD01410772
#	Creating user name:	WinNT
#	Creation time:	15. 06. 2019 19:18

#	Modifying user name:	WinNT
#	Modification time:	15. 06. 2019 19:18

#	Program:	/corina/corina34_cracker 3.40 0067  02.08.2006

@<TRIPOS>MOLECULE
ASD01410772
 114  121    0    0    0
SMALL
NO_CHARGES


@<TRIPOS>ATOM
   1 C1             2.2374     1.4030    -0.4710 C.3     
   2 C2             1.5912    -2.2384    -1.4980 C.3     
   3 C3             1.5031    -0.6994    -1.6054 C.3     
   4 N4             2.5379    -0.3608    -2.5968 N.am    
   5 C5             2.4835    -1.4105    -3.6265 C.3     
   6 C6             1.8915    -2.6659    -2.9550 C.3     
   7 O7             2.6560    -2.6252    -0.6271 O.3     
   8 C8             1.5994    -0.9700    -4.7646 C.2     
   9 O9             1.0610     0.1162    -4.7290 O.2     
  10 N10            1.4071    -1.7830    -5.8222 N.am    
  11 C11            0.4783    -1.3937    -6.8861 C.3     
  12 C12           -0.9720    -1.3115    -6.4850 C.2     
  13 N13           -1.3507    -1.6839    -5.2463 N.am    
  14 O14           -1.7984    -0.9103    -7.2768 O.2     
  15 S15           -2.9215    -1.4784    -4.7638 S.o2    
  16 C16           -3.8742    -2.5843    -5.8409 C.3     
  17 C17            0.9798    -0.3952    -7.9313 C.3     
  18 C18            0.7926    -1.8673    -8.3066 C.3     
  19 C19           -5.3992    -2.5418    -5.7253 C.3     
  20 C20           -4.7080    -1.9428    -6.9518 C.3     
  21 O21           -2.9408    -1.9494    -3.4233 O.2     
  22 O22           -3.2063    -0.1197    -5.0671 O.2     
  23 C23           -0.0296     0.6100    -8.4896 C.3     
  24 C24            0.6884     1.5917    -9.4178 C.3     
  25 C25            2.5700    -3.8526    -0.0568 C.ar    
  26 C26            3.5466    -4.2944     0.8662 C.ar    
  27 C27            1.5317    -4.6955    -0.3551 C.ar    
  28 C28            1.4657    -5.9591     0.2477 C.ar    
  29 N29            2.3867    -6.3647     1.1056 N.ar    
  30 C30            3.4194    -5.5840     1.4389 C.ar    
  31 C31            0.3406    -6.8587    -0.0826 C.2     
  32 C32            4.3924    -6.0268     2.3519 C.ar    
  33 C33            5.4458    -5.2014     2.6767 C.ar    
  34 C34            5.5576    -3.9289     2.1093 C.ar    
  35 C35            4.6315    -3.4788     1.2190 C.ar    
  36 Cl36           4.2665    -7.6042     3.0659 Cl      
  37 O37            6.3866    -5.6286     3.5590 O.3     
  38 N38            0.1601    -8.0533     0.4041 N.2     
  39 C39            1.8239    -0.0539    -0.2649 C.3     
  40 C40            3.5382     1.4685    -1.2718 C.3     
  41 C41            3.3888     0.6744    -2.5449 C.2     
  42 C42            3.8527     2.9261    -1.6145 C.3     
  43 C43            2.7140     3.5100    -2.4531 C.3     
  44 C44            4.0008     3.7331    -0.3231 C.3     
  45 O45            4.0399     0.9723    -3.5238 O.2     
  46 C46            7.4548    -4.7269     3.8555 C.3     
  47 C47           -0.8984    -8.7106    -0.0038 C.2     
  48 C48           -1.6798    -8.0706    -0.8832 C.2     
  49 S49           -0.9757    -6.4845    -1.1922 S.3     
  50 C50           -1.2158   -10.1000     0.4860 C.3     
  51 C51           -2.1898   -10.0158     1.6629 C.3     
  52 C52           -1.8533   -10.9069    -0.6469 C.3     
  53 C53            8.4077    -5.3778     4.8601 C.3     
  54 N54            9.0466    -6.5474     4.2421 N.3     
  55 C55           10.1381    -7.0579     5.0842 C.3     
  56 C56            9.5351    -6.2291     2.8925 C.3     
  57 C57           10.1383    -7.4880     2.2638 C.3     
  58 O58           11.1762    -7.9876     3.1115 O.3     
  59 C59           10.7353    -8.3085     4.4336 C.3     
  60 H60            1.4517     1.9288    -1.0135 H       
  61 H61            2.3853     1.8778     0.4989 H       
  62 H62            0.6441    -2.6567    -1.1572 H       
  63 H63            0.5185    -0.3970    -1.9622 H       
  64 H64            3.4870    -1.6233    -3.9948 H       
  65 H65            2.6160    -3.4801    -2.9690 H       
  66 H66            0.9727    -2.9669    -3.4583 H       
  67 H67            1.8836    -2.6260    -5.8788 H       
  68 H68           -0.7032    -2.0723    -4.6374 H       
  69 H69           -3.4120    -3.5488    -6.0511 H       
  70 H70            2.0008    -0.0280    -7.8273 H       
  71 H71            1.6906    -2.4684    -8.4496 H       
  72 H72           -0.0495    -2.1192    -8.9511 H       
  73 H73           -5.9404    -3.4784    -5.8599 H       
  74 H74           -5.8301    -1.8494    -5.0021 H       
  75 H75           -4.6841    -0.8563    -7.0355 H       
  76 H76           -4.7944    -2.4853    -7.8933 H       
  77 H77           -0.8001     0.0788    -9.0484 H       
  78 H78           -0.4896     1.1578    -7.6672 H       
  79 H79            1.4589     2.1228    -8.8590 H       
  80 H80            1.1485     1.0439   -10.2402 H       
  81 H81           -0.0307     2.3078    -9.8155 H       
  82 H82            0.7666    -4.3871    -1.0522 H       
  83 H83            6.3912    -3.2967     2.3774 H       
  84 H84            4.7301    -2.4936     0.7877 H       
  85 H85            2.6395    -0.5973     0.2122 H       
  86 H86            0.9426    -0.0926     0.3753 H       
  87 H87            4.3516     1.0521    -0.6776 H       
  88 H88            4.7826     2.9736    -2.1812 H       
  89 H89            1.7841     3.4625    -1.8863 H       
  90 H90            2.9380     4.5484    -2.6972 H       
  91 H91            2.6085     2.9351    -3.3731 H       
  92 H92            4.8478     3.3528     0.2479 H       
  93 H93            4.1688     4.7820    -0.5673 H       
  94 H94            3.0912     3.6393     0.2702 H       
  95 H95            7.9972    -4.4925     2.9396 H       
  96 H96            7.0484    -3.8098     4.2819 H       
  97 H97           -2.5869    -8.4575    -1.3235 H       
  98 H98           -0.2973   -10.5901     0.8089 H       
  99 H99           -3.1083    -9.5257     1.3400 H       
 100 H100          -2.4194   -11.0207     2.0172 H       
 101 H101          -1.7356    -9.4409     2.4700 H       
 102 H102          -2.0829   -11.9118    -0.2926 H       
 103 H103          -2.7718   -10.4168    -0.9698 H       
 104 H104          -1.1594   -10.9669    -1.4853 H       
 105 H105           9.1725    -4.6589     5.1539 H       
 106 H106           7.8477    -5.6927     5.7406 H       
 107 H107          10.9101    -6.2945     5.1818 H       
 108 H108           9.7491    -7.3112     6.0704 H       
 109 H109           8.7058    -5.8774     2.2788 H       
 110 H110          10.2974    -5.4525     2.9550 H       
 111 H111           9.3632    -8.2462     2.1520 H       
 112 H112          10.5530    -7.2436     1.2859 H       
 113 H113          11.5818    -8.6575     5.0249 H       
 114 H114           9.9775    -9.0905     4.3848 H       
@<TRIPOS>BOND
   1    1   39 1
   2    1   40 1
   3    1   60 1
   4    1   61 1
   5    2    3 1
   6    2    7 1
   7    2    6 1
   8    2   62 1
   9    3    4 1
  10    3   39 1
  11    3   63 1
  12    4    5 1
  13    4   41 am
  14    5    6 1
  15    5    8 1
  16    5   64 1
  17    6   65 1
  18    6   66 1
  19    7   25 1
  20    8    9 2
  21    8   10 am
  22   10   11 1
  23   10   67 1
  24   11   12 1
  25   11   17 1
  26   11   18 1
  27   12   13 am
  28   12   14 2
  29   13   15 am
  30   13   68 1
  31   15   16 1
  32   15   21 2
  33   15   22 2
  34   16   19 1
  35   16   20 1
  36   16   69 1
  37   17   18 1
  38   17   23 1
  39   17   70 1
  40   18   71 1
  41   18   72 1
  42   19   20 1
  43   19   73 1
  44   19   74 1
  45   20   75 1
  46   20   76 1
  47   23   24 1
  48   23   77 1
  49   23   78 1
  50   24   79 1
  51   24   80 1
  52   24   81 1
  53   25   26 ar
  54   25   27 ar
  55   26   30 ar
  56   26   35 ar
  57   27   28 ar
  58   27   82 1
  59   28   29 ar
  60   28   31 1
  61   29   30 ar
  62   30   32 ar
  63   31   38 2
  64   31   49 1
  65   32   33 ar
  66   32   36 1
  67   33   34 ar
  68   33   37 1
  69   34   35 ar
  70   34   83 1
  71   35   84 1
  72   37   46 1
  73   38   47 1
  74   39   85 1
  75   39   86 1
  76   40   41 1
  77   40   42 1
  78   40   87 1
  79   41   45 2
  80   42   43 1
  81   42   44 1
  82   42   88 1
  83   43   89 1
  84   43   90 1
  85   43   91 1
  86   44   92 1
  87   44   93 1
  88   44   94 1
  89   46   53 1
  90   46   95 1
  91   46   96 1
  92   47   48 2
  93   47   50 1
  94   48   49 1
  95   48   97 1
  96   50   51 1
  97   50   52 1
  98   50   98 1
  99   51   99 1
 100   51  100 1
 101   51  101 1
 102   52  102 1
 103   52  103 1
 104   52  104 1
 105   53   54 1
 106   53  105 1
 107   53  106 1
 108   54   55 1
 109   54   56 1
 110   55   59 1
 111   55  107 1
 112   55  108 1
 113   56   57 1
 114   56  109 1
 115   56  110 1
 116   57   58 1
 117   57  111 1
 118   57  112 1
 119   58   59 1
 120   59  113 1
 121   59  114 1

#	End of record

