#	Name: ASD03900049
#	Creating user name:	WinNT
#	Creation time:	15. 06. 2019 20:47

#	Modifying user name:	WinNT
#	Modification time:	15. 06. 2019 20:47

#	Program:	/corina/corina34_cracker 3.40 0067  02.08.2006

@<TRIPOS>MOLECULE
ASD03900049
  51   53    0    0    0
SMALL
NO_CHARGES


@<TRIPOS>ATOM
   1 C1             0.1491     3.8453    -1.1986 C.ar    
   2 C2            -0.5394     2.6838    -1.5538 C.ar    
   3 C3             0.0413     1.4303    -1.3512 C.ar    
   4 C4             1.2854     1.3326    -0.8042 C.ar    
   5 C5             1.9864     2.5009    -0.4431 C.ar    
   6 C6             1.3940     3.7628    -0.6511 C.ar    
   7 C7             3.3207     2.4042     0.1444 C.2     
   8 N8             3.8052     1.1942     0.5380 N.2     
   9 C9             4.1350     3.6060     0.3096 C.ar    
  10 C10            4.2034     4.5625    -0.7234 C.ar    
  11 C11            4.9644     5.6811    -0.5622 C.ar    
  12 C12            5.6754     5.8811     0.6226 C.ar    
  13 C13            5.6124     4.9379     1.6502 C.ar    
  14 C14            4.8512     3.8172     1.5050 C.ar    
  15 O15            6.4305     6.9956     0.7758 O.3     
  16 O16           -1.7773     2.7733    -2.0975 O.3     
  17 N17            5.0267     1.0879     0.9386 N.pl3   
  18 C18            5.5311    -0.1427     1.2882 C.ar    
  19 C19            6.8551    -0.2617     1.7230 C.ar    
  20 C20            7.3539    -1.4981     2.0716 C.ar    
  21 C21            6.5471    -2.6218     1.9922 C.ar    
  22 C22            5.2341    -2.5113     1.5621 C.ar    
  23 C23            4.7205    -1.2808     1.2159 C.ar    
  24 C24            5.7799     8.1426     1.0325 C.2     
  25 C25            6.5434     9.4391     1.1178 C.3     
  26 O26            4.5827     8.1348     1.1948 O.2     
  27 C27           -1.8522     3.1504    -3.3848 C.2     
  28 O28           -0.8414     3.3158    -4.0257 O.2     
  29 C29           -3.1971     3.3669    -4.0294 C.3     
  30 N30            8.7549    -1.6261     2.5316 N.pl3   
  31 O31            9.5233    -0.5591     2.6073 O.2     
  32 O32            9.2332    -2.8070     2.8651 O.2     
  33 H33           -0.3044     4.8117    -1.3623 H       
  34 H34           -0.4970     0.5360    -1.6283 H       
  35 H35            1.7331     0.3624    -0.6473 H       
  36 H36            1.9256     4.6621    -0.3771 H       
  37 H37            3.6542     4.4089    -1.6406 H       
  38 H38            5.0181     6.4147    -1.3530 H       
  39 H39            6.1650     5.0991     2.5640 H       
  40 H40            4.8031     3.0887     2.3008 H       
  41 H41            5.5895     1.8761     0.9934 H       
  42 H42            7.4852     0.6133     1.7851 H       
  43 H43            6.9433    -3.5884     2.2663 H       
  44 H44            4.6109    -3.3914     1.5022 H       
  45 H45            3.6971    -1.1960     0.8813 H       
  46 H46            7.6027     9.2490     0.9453 H       
  47 H47            6.1706    10.1307     0.3623 H       
  48 H48            6.4090     9.8754     2.1076 H       
  49 H49           -3.9846     3.1714    -3.3015 H       
  50 H50           -3.2716     4.3972    -4.3773 H       
  51 H51           -3.3079     2.6888    -4.8755 H       
@<TRIPOS>BOND
   1    1    2 ar
   2    1    6 ar
   3    1   33 1
   4    2    3 ar
   5    2   16 1
   6    3    4 ar
   7    3   34 1
   8    4    5 ar
   9    4   35 1
  10    5    6 ar
  11    5    7 1
  12    6   36 1
  13    7    8 2
  14    7    9 1
  15    8   17 1
  16    9   10 ar
  17    9   14 ar
  18   10   11 ar
  19   10   37 1
  20   11   12 ar
  21   11   38 1
  22   12   13 ar
  23   12   15 1
  24   13   14 ar
  25   13   39 1
  26   14   40 1
  27   15   24 1
  28   16   27 1
  29   17   18 1
  30   17   41 1
  31   18   19 ar
  32   18   23 ar
  33   19   20 ar
  34   19   42 1
  35   20   30 1
  36   20   21 ar
  37   21   22 ar
  38   21   43 1
  39   22   23 ar
  40   22   44 1
  41   23   45 1
  42   24   25 1
  43   24   26 2
  44   25   46 1
  45   25   47 1
  46   25   48 1
  47   27   28 2
  48   27   29 1
  49   29   49 1
  50   29   50 1
  51   29   51 1
  52   30   31 2
  53   30   32 2

#	End of record

