#	Name: ASD06340013
#	Creating user name:	WinNT
#	Creation time:	15. 06. 2019 21:05

#	Modifying user name:	WinNT
#	Modification time:	15. 06. 2019 21:05

#	Program:	/corina/corina34_cracker 3.40 0067  02.08.2006

@<TRIPOS>MOLECULE
ASD06340013
  29   30    0    0    0
SMALL
NO_CHARGES


@<TRIPOS>ATOM
   1 N1            -0.0159     1.3206     0.0093 N.am    
   2 C2             0.0021    -0.0041     0.0020 C.2     
   3 N3             1.2079    -0.5931    -0.0127 N.am    
   4 S4             2.3479     0.6655    -0.0168 S.3     
   5 C5             1.1811     1.9312     0.0012 C.2     
   6 C6             1.4848    -2.0317    -0.0226 C.3     
   7 C7            -1.2703     2.0773     0.0195 C.3     
   8 O8             1.3957     3.1293     0.0049 O.2     
   9 O9            -1.0257    -0.6556     0.0087 O.2     
  10 C10            1.4439    -2.5490    -1.4619 C.3     
  11 C11           -1.7000     2.3329     1.4655 C.3     
  12 O12           -0.7630     3.2087     2.1033 O.3     
  13 C13           -1.4178     4.4252     2.4965 C.3     
  14 C14           -2.9137     4.0497     2.6456 C.3     
  15 C15           -3.0781     3.0285     1.4871 C.3     
  16 H16            2.4723    -2.2145     0.4012 H       
  17 H17            0.7327    -2.5506     0.5716 H       
  18 H18           -1.1242     3.0298    -0.4899 H       
  19 H19           -2.0436     1.5057    -0.4937 H       
  20 H20            2.1960    -2.0301    -2.0561 H       
  21 H21            1.6499    -3.6193    -1.4693 H       
  22 H22            0.4564    -2.3662    -1.8857 H       
  23 H23           -1.7522     1.3889     2.0079 H       
  24 H24           -1.0198     4.7786     3.4478 H       
  25 H25           -1.2939     5.1873     1.7271 H       
  26 H26           -3.1071     3.5827     3.6113 H       
  27 H27           -3.5537     4.9193     2.4966 H       
  28 H28           -3.2695     3.5397     0.5436 H       
  29 H29           -3.8701     2.3135     1.7098 H       
@<TRIPOS>BOND
   1    1    2 am
   2    1    5 am
   3    1    7 1
   4    2    3 am
   5    2    9 2
   6    3    4 1
   7    3    6 1
   8    4    5 1
   9    5    8 2
  10    6   10 1
  11    6   16 1
  12    6   17 1
  13    7   11 1
  14    7   18 1
  15    7   19 1
  16   10   20 1
  17   10   21 1
  18   10   22 1
  19   11   12 1
  20   11   15 1
  21   11   23 1
  22   12   13 1
  23   13   14 1
  24   13   24 1
  25   13   25 1
  26   14   15 1
  27   14   26 1
  28   14   27 1
  29   15   28 1
  30   15   29 1

#	End of record

