#	Name: ASD01152331
#	Creating user name:	WinNT
#	Creation time:	15. 06. 2019 19:05

#	Modifying user name:	WinNT
#	Modification time:	15. 06. 2019 19:05

#	Program:	/corina/corina34_cracker 3.40 0067  02.08.2006

@<TRIPOS>MOLECULE
ASD01152331
  39   41    0    0    0
SMALL
NO_CHARGES


@<TRIPOS>ATOM
   1 C1            -0.0157     1.3031     0.0092 C.2     
   2 N2             0.0021    -0.0041     0.0020 N.2     
   3 N3            -1.2028    -0.7168     0.0096 N.am    
   4 C4            -2.3848    -0.0760     0.0243 C.2     
   5 N5            -2.4467     1.2686     0.0321 N.am    
   6 C6            -1.3113     1.9975     0.0315 C.2     
   7 O7            -1.3592     3.2136     0.0389 O.2     
   8 O8            -3.4153    -0.7220     0.0303 O.2     
   9 C9            -1.1767    -2.1174     0.0014 C.ar    
  10 C10           -3.7481     1.9413     0.0476 C.3     
  11 C11           -4.1814     2.1642     1.4737 C.ar    
  12 C12           -3.8302     3.3301     2.1282 C.ar    
  13 C13           -4.2273     3.5352     3.4361 C.ar    
  14 C14           -4.9763     2.5733     4.0903 C.ar    
  15 C15           -5.3274     1.4067     3.4347 C.ar    
  16 C16           -4.9346     1.2053     2.1249 C.ar    
  17 C17           -0.4817    -2.7969    -0.9971 C.ar    
  18 C18           -1.8382    -2.8311     0.9910 C.ar    
  19 C19           -1.8112    -4.2122     0.9818 C.ar    
  20 C20           -1.1252    -4.8880    -0.0140 C.ar    
  21 C21           -0.4589    -4.1823    -1.0009 C.ar    
  22 Cl22          -5.4750     2.8300     5.7332 Cl      
  23 O23            0.1720    -2.1022    -1.9655 O.3     
  24 F24           -1.1018    -6.2388    -0.0187 F       
  25 O25            1.1452     2.0089     0.0019 O.3     
  26 C26            2.3609     1.2579    -0.0137 C.3     
  27 H27           -3.6669     2.9015    -0.4618 H       
  28 H28           -4.4842     1.3202    -0.4629 H       
  29 H29           -3.2452     4.0808     1.6176 H       
  30 H30           -3.9526     4.4460     3.9475 H       
  31 H31           -5.9121     0.6555     3.9448 H       
  32 H32           -5.2086     0.2946     1.6131 H       
  33 H33           -2.3738    -2.3066     1.7684 H       
  34 H34           -2.3259    -4.7663     1.7528 H       
  35 H35            0.0749    -4.7115    -1.7764 H       
  36 H36            1.0896    -1.8903    -1.7461 H       
  37 H37            2.3915     0.6346    -0.9074 H       
  38 H38            3.2101     1.9413    -0.0182 H       
  39 H39            2.4085     0.6251     0.8725 H       
@<TRIPOS>BOND
   1    1    2 2
   2    1   25 1
   3    1    6 1
   4    2    3 1
   5    3    4 am
   6    3    9 1
   7    4    5 am
   8    4    8 2
   9    5    6 am
  10    5   10 1
  11    6    7 2
  12    9   17 ar
  13    9   18 ar
  14   10   11 1
  15   10   27 1
  16   10   28 1
  17   11   12 ar
  18   11   16 ar
  19   12   13 ar
  20   12   29 1
  21   13   14 ar
  22   13   30 1
  23   14   15 ar
  24   14   22 1
  25   15   16 ar
  26   15   31 1
  27   16   32 1
  28   17   23 1
  29   17   21 ar
  30   18   19 ar
  31   18   33 1
  32   19   20 ar
  33   19   34 1
  34   20   21 ar
  35   20   24 1
  36   21   35 1
  37   23   36 1
  38   25   26 1
  39   26   37 1
  40   26   38 1
  41   26   39 1

#	End of record

