#	Name: ASD03430061
#	Creating user name:	WinNT
#	Creation time:	15. 06. 2019 20:40

#	Modifying user name:	WinNT
#	Modification time:	15. 06. 2019 20:40

#	Program:	/corina/corina34_cracker 3.40 0067  02.08.2006

@<TRIPOS>MOLECULE
ASD03430061
  50   55    0    0    0
SMALL
NO_CHARGES


@<TRIPOS>ATOM
   1 C1            -0.0167     1.3821     0.0096 C.ar    
   2 C2             0.0021    -0.0041     0.0020 C.ar    
   3 C3             1.2026    -0.6818    -0.0161 C.ar    
   4 C4             2.4086     0.0125    -0.0153 C.ar    
   5 C5             2.3860     1.4035    -0.0106 C.ar    
   6 C6             1.1816     2.0865     0.0020 C.ar    
   7 O7             3.4712    -0.8425    -0.0055 O.3     
   8 C8             1.5508    -2.1459    -0.0506 C.3     
   9 C9             3.0363    -2.1459    -0.4374 C.3     
  10 C10            0.4275    -3.8585     1.0087 C.ar    
  11 C11            1.3151    -2.8198     1.2684 C.ar    
  12 C12            0.7167    -2.9069    -1.0407 C.2     
  13 N13            0.0969    -3.8838    -0.3490 N.am    
  14 O14            0.6194    -2.6857    -2.2293 O.2     
  15 C15            1.7842    -2.5986     2.5550 C.ar    
  16 C16            1.3632    -3.4238     3.5977 C.ar    
  17 C17            0.4825    -4.4554     3.3409 C.ar    
  18 C18            0.0163    -4.6750     2.0602 C.ar    
  19 C19           -0.8160    -4.8590    -0.9505 C.3     
  20 O20           -1.2113     2.0353     0.0189 O.3     
  21 C21           -1.1864     3.4167     0.3945 C.3     
  22 C22           -0.0345     4.0979    -0.3569 C.3     
  23 O23            1.1868     3.4480     0.0102 O.3     
  24 C24            2.7318    -1.4873     2.8212 C.2     
  25 C25            4.0971    -1.5152     2.7846 C.2     
  26 O26            4.5060    -0.2773     3.0943 O.3     
  27 N27            3.5751     0.4641     3.3050 N.2     
  28 C28            2.4320    -0.1402     3.1686 C.2     
  29 C29            4.9690    -2.7010     2.4609 C.3     
  30 C30            1.0631     0.4631     3.3511 C.3     
  31 H31           -0.9268    -0.5549     0.0107 H       
  32 H32            3.3147     1.9546    -0.0169 H       
  33 H33            3.1557    -2.2564    -1.5152 H       
  34 H34            3.5749    -2.9298     0.0951 H       
  35 H35            1.7249    -3.2568     4.6015 H       
  36 H36            0.1561    -5.0952     4.1475 H       
  37 H37           -0.6724    -5.4853     1.8721 H       
  38 H38           -1.8343    -4.4713    -0.9185 H       
  39 H39           -0.5271    -5.0363    -1.9864 H       
  40 H40           -0.7660    -5.7949    -0.3940 H       
  41 H41           -2.1313     3.8882     0.1242 H       
  42 H42           -1.0261     3.5027     1.4692 H       
  43 H43           -0.1908     4.0049    -1.4316 H       
  44 H44            0.0120     5.1514    -0.0813 H       
  45 H45            5.1578    -2.7309     1.3877 H       
  46 H46            5.9156    -2.6123     2.9940 H       
  47 H47            4.4643    -3.6174     2.7667 H       
  48 H48            0.7149     0.8681     2.4008 H       
  49 H49            0.3702    -0.3051     3.6943 H       
  50 H50            1.1140     1.2628     4.0900 H       
@<TRIPOS>BOND
   1    1    2 ar
   2    1    6 ar
   3    1   20 1
   4    2    3 ar
   5    2   31 1
   6    3    4 ar
   7    3    8 1
   8    4    5 ar
   9    4    7 1
  10    5    6 ar
  11    5   32 1
  12    6   23 1
  13    7    9 1
  14    8    9 1
  15    8   11 1
  16    8   12 1
  17    9   33 1
  18    9   34 1
  19   10   11 ar
  20   10   13 1
  21   10   18 ar
  22   11   15 ar
  23   12   13 am
  24   12   14 2
  25   13   19 1
  26   15   16 ar
  27   15   24 1
  28   16   17 ar
  29   16   35 1
  30   17   18 ar
  31   17   36 1
  32   18   37 1
  33   19   38 1
  34   19   39 1
  35   19   40 1
  36   20   21 1
  37   21   22 1
  38   21   41 1
  39   21   42 1
  40   22   23 1
  41   22   43 1
  42   22   44 1
  43   24   25 2
  44   24   28 1
  45   25   26 1
  46   25   29 1
  47   26   27 1
  48   27   28 2
  49   28   30 1
  50   29   45 1
  51   29   46 1
  52   29   47 1
  53   30   48 1
  54   30   49 1
  55   30   50 1

#	End of record

