#	Name: ASD01885317
#	Creating user name:	WinNT
#	Creation time:	15. 06. 2019 19:49

#	Modifying user name:	WinNT
#	Modification time:	15. 06. 2019 19:49

#	Program:	/corina/corina34_cracker 3.40 0067  02.08.2006

@<TRIPOS>MOLECULE
ASD01885317
  57   61    0    0    0
SMALL
NO_CHARGES


@<TRIPOS>ATOM
   1 C1            -0.0164     1.3564     0.0095 C.ar    
   2 C2             0.0021    -0.0041     0.0020 C.ar    
   3 C3             1.2053    -0.7064    -0.0128 C.ar    
   4 C4             2.3988    -0.0484    -0.0201 C.ar    
   5 C5             2.4185     1.3521    -0.0133 C.ar    
   6 C6             1.1965     2.0715     0.0018 C.ar    
   7 C7             3.6407     2.0709    -0.0206 C.ar    
   8 C8             3.5788     3.4577    -0.0130 C.ar    
   9 C9             2.3314     4.0920     0.0013 C.ar    
  10 N10            1.2050     3.4047     0.0084 N.ar    
  11 C11            4.9419     1.3646    -0.0352 C.ar    
  12 C12            2.2741     5.5737     0.0097 C.2     
  13 O13            3.3021     6.2215     0.0041 O.2     
  14 N14            1.0818     6.2019     0.0235 N.am    
  15 C15           -1.2997    -0.7633     0.0104 C.3     
  16 N16           -1.7358    -1.0026    -1.3718 N.3     
  17 C17           -2.8674    -1.9377    -1.4122 C.3     
  18 C18           -3.3950    -2.0380    -2.8465 C.3     
  19 C19           -2.2703    -2.4983    -3.7669 C.3     
  20 C20           -1.0716    -1.5623    -3.6621 C.3     
  21 C21           -0.6207    -1.4777    -2.2008 C.3     
  22 C22           -1.8547    -3.9401    -3.4237 C.3     
  23 C23           -2.7662    -2.5726    -5.2224 C.3     
  24 C24           -2.5892    -4.0619    -5.5985 C.3     
  25 O25           -2.6104    -4.7667    -4.3376 O.3     
  26 C26            5.9190     1.7169    -0.9667 C.ar    
  27 C27            7.1294     1.0560    -0.9763 C.ar    
  28 C28            7.3760     0.0433    -0.0627 C.ar    
  29 C29            6.4086    -0.3104     0.8646 C.ar    
  30 C30            5.1971     0.3484     0.8861 C.ar    
  31 F31            8.5631    -0.6015    -0.0764 F       
  32 H32           -0.9577     1.8858     0.0168 H       
  33 H33            1.1920    -1.7863    -0.0181 H       
  34 H34            3.3248    -0.6041    -0.0309 H       
  35 H35            4.4866     4.0427    -0.0179 H       
  36 H36            0.2612     5.6848     0.0279 H       
  37 H37            1.0443     7.1712     0.0290 H       
  38 H38           -1.1602    -1.7179     0.5178 H       
  39 H39           -2.0569    -0.1804     0.5346 H       
  40 H40           -2.5383    -2.9211    -1.0764 H       
  41 H41           -3.6607    -1.5767    -0.7576 H       
  42 H42           -4.2130    -2.7575    -2.8838 H       
  43 H43           -3.7540    -1.0614    -3.1712 H       
  44 H44           -0.2551    -1.9472    -4.2731 H       
  45 H45           -1.3532    -0.5698    -4.0139 H       
  46 H46            0.2153    -0.7831    -2.1181 H       
  47 H47           -0.3084    -2.4645    -1.8591 H       
  48 H48           -0.7852    -4.0756    -3.5847 H       
  49 H49           -2.1173    -4.1758    -2.3924 H       
  50 H50           -3.8156    -2.2845    -5.2842 H       
  51 H51           -2.1561    -1.9400    -5.8672 H       
  52 H52           -3.4117    -4.3934    -6.2324 H       
  53 H53           -1.6350    -4.2150    -6.1027 H       
  54 H54            5.7277     2.5056    -1.6792 H       
  55 H55            7.8863     1.3277    -1.6972 H       
  56 H56            6.6053    -1.1004     1.5743 H       
  57 H57            4.4456     0.0752     1.6120 H       
@<TRIPOS>BOND
   1    1    2 ar
   2    1    6 ar
   3    1   32 1
   4    2    3 ar
   5    2   15 1
   6    3    4 ar
   7    3   33 1
   8    4    5 ar
   9    4   34 1
  10    5    7 ar
  11    5    6 ar
  12    6   10 ar
  13    7    8 ar
  14    7   11 1
  15    8    9 ar
  16    8   35 1
  17    9   10 ar
  18    9   12 1
  19   11   26 ar
  20   11   30 ar
  21   12   13 2
  22   12   14 am
  23   14   36 1
  24   14   37 1
  25   15   16 1
  26   15   38 1
  27   15   39 1
  28   16   17 1
  29   16   21 1
  30   17   18 1
  31   17   40 1
  32   17   41 1
  33   18   19 1
  34   18   42 1
  35   18   43 1
  36   19   20 1
  37   19   23 1
  38   19   22 1
  39   20   21 1
  40   20   44 1
  41   20   45 1
  42   21   46 1
  43   21   47 1
  44   22   25 1
  45   22   48 1
  46   22   49 1
  47   23   24 1
  48   23   50 1
  49   23   51 1
  50   24   25 1
  51   24   52 1
  52   24   53 1
  53   26   27 ar
  54   26   54 1
  55   27   28 ar
  56   27   55 1
  57   28   29 ar
  58   28   31 1
  59   29   30 ar
  60   29   56 1
  61   30   57 1

#	End of record

