#	Name: ASD01813774
#	Creating user name:	WinNT
#	Creation time:	15. 06. 2019 19:31

#	Modifying user name:	WinNT
#	Modification time:	15. 06. 2019 19:31

#	Program:	/corina/corina34_cracker 3.40 0067  02.08.2006

@<TRIPOS>MOLECULE
ASD01813774
  46   50    0    0    0
SMALL
NO_CHARGES


@<TRIPOS>ATOM
   1 C1             0.0961     1.4749     0.3444 C.ar    
   2 C2             0.0783     0.0877     0.3367 C.ar    
   3 C3             1.2490    -0.6310     0.2099 C.ar    
   4 C4             2.4664     0.0381     0.0878 C.ar    
   5 C5             2.4797     1.4428     0.0961 C.ar    
   6 C6             1.2876     2.1556     0.2251 C.ar    
   7 N7             3.6440    -0.6677    -0.0385 N.pl3   
   8 C8             4.8374    -0.0726    -0.1572 C.2     
   9 C9             4.9772     1.3008    -0.1617 C.2     
  10 C10            3.7738     2.1383    -0.0338 C.2     
  11 O11            3.8439     3.3549    -0.0326 O.2     
  12 C12            6.3054     1.9163    -0.2931 C.2     
  13 O13            6.4289     3.2586    -0.2962 O.3     
  14 O14            7.2926     1.2148    -0.3990 O.2     
  15 C15            3.5871    -2.1316    -0.0427 C.3     
  16 C16            3.4445    -2.6248    -1.4595 C.ar    
  17 C17            4.5577    -2.7728    -2.2734 C.ar    
  18 N18            4.3983    -3.2081    -3.5114 N.ar    
  19 C19            3.1914    -3.5018    -3.9765 C.ar    
  20 N20            2.1069    -3.3709    -3.2242 N.ar    
  21 C21            2.1980    -2.9459    -1.9758 C.ar    
  22 F22            1.2162    -1.9816     0.2045 F       
  23 C23            3.0513    -3.9874    -5.3701 C.ar    
  24 C24            4.1852    -4.1307    -6.1772 C.ar    
  25 C25            4.0737    -4.5769    -7.4621 C.ar    
  26 C26            2.8242    -4.8961    -7.9869 C.ar    
  27 C27            1.6758    -4.7558    -7.1841 C.ar    
  28 C28            1.7951    -4.3048    -5.8707 C.ar    
  29 N29            2.4062    -5.3572    -9.2140 N.pl3   
  30 C30            1.0466    -5.5121    -9.2158 C.2     
  31 C31            0.5445    -5.1661    -8.0203 C.2     
  32 H32           -0.8292     2.0237     0.4399 H       
  33 H33           -0.8620    -0.4351     0.4313 H       
  34 H34            1.2987     3.2355     0.2310 H       
  35 H35            5.7202    -0.6875    -0.2522 H       
  36 H36            7.3226     3.6171    -0.3850 H       
  37 H37            4.5034    -2.5321     0.3910 H       
  38 H38            2.7315    -2.4636     0.5454 H       
  39 H39            5.5429    -2.5348    -1.9004 H       
  40 H40            1.3114    -2.8416    -1.3679 H       
  41 H41            5.1588    -3.8854    -5.7793 H       
  42 H42            4.9574    -4.6824    -8.0739 H       
  43 H43            0.9178    -4.1954    -5.2505 H       
  44 H44            2.9890    -5.5446    -9.9664 H       
  45 H45            0.4637    -5.8610   -10.0554 H       
  46 H46           -0.4955    -5.1863    -7.7297 H       
@<TRIPOS>BOND
   1    1    2 ar
   2    1    6 ar
   3    1   32 1
   4    2    3 ar
   5    2   33 1
   6    3   22 1
   7    3    4 ar
   8    4    5 ar
   9    4    7 1
  10    5    6 ar
  11    5   10 1
  12    6   34 1
  13    7    8 1
  14    7   15 1
  15    8    9 2
  16    8   35 1
  17    9   10 1
  18    9   12 1
  19   10   11 2
  20   12   13 1
  21   12   14 2
  22   13   36 1
  23   15   16 1
  24   15   37 1
  25   15   38 1
  26   16   17 ar
  27   16   21 ar
  28   17   18 ar
  29   17   39 1
  30   18   19 ar
  31   19   20 ar
  32   19   23 1
  33   20   21 ar
  34   21   40 1
  35   23   24 ar
  36   23   28 ar
  37   24   25 ar
  38   24   41 1
  39   25   26 ar
  40   25   42 1
  41   26   27 ar
  42   26   29 1
  43   27   28 ar
  44   27   31 1
  45   28   43 1
  46   29   30 1
  47   29   44 1
  48   30   31 2
  49   30   45 1
  50   31   46 1

#	End of record

