#	Name: ASD09890088
#	Creating user name:	WinNT
#	Creation time:	15. 06. 2019 21:24

#	Modifying user name:	WinNT
#	Modification time:	15. 06. 2019 21:24

#	Program:	/corina/corina34_cracker 3.40 0067  02.08.2006

@<TRIPOS>MOLECULE
ASD09890088
  42   45    0    0    0
SMALL
NO_CHARGES


@<TRIPOS>ATOM
   1 C1            -0.0176     1.3671     0.0633 C.2     
   2 N2            -0.0054    -0.0002     0.0335 N.pl3   
   3 C3            -1.2996    -0.4352     0.1157 C.2     
   4 N4            -2.0759     0.6192     0.1928 N.2     
   5 N5            -1.2621     1.7592     0.1651 N.2     
   6 S6            -1.8303    -2.1154     0.1172 S.3     
   7 C7            -3.6340    -1.9735     0.2478 C.3     
   8 C8             1.1337    -0.8132    -0.0640 C.ar    
   9 C9             2.0769    -0.8327     0.9592 C.ar    
  10 C10            3.1852    -1.6522     0.8174 C.ar    
  11 C11            3.3170    -2.4173    -0.3261 C.ar    
  12 N12            2.4050    -2.3756    -1.2779 N.ar    
  13 C13            1.3335    -1.6144    -1.1800 C.ar    
  14 C14           -4.2815    -3.3650     0.1374 C.3     
  15 C15           -5.0397    -3.6044     1.4593 C.3     
  16 C16           -5.3172    -2.1802     2.0014 C.3     
  17 C17           -4.0213    -1.4159     1.6330 C.3     
  18 O18            1.0702     2.1752     0.0035 O.3     
  19 C19            0.8650     3.5150    -0.0919 C.ar    
  20 C20           -0.4171     4.0095    -0.2837 C.ar    
  21 C21            1.9366     4.3906     0.0081 C.ar    
  22 C22            1.7264     5.7537    -0.0887 C.ar    
  23 C23            0.4487     6.2455    -0.2847 C.ar    
  24 C24           -0.6236     5.3740    -0.3801 C.ar    
  25 Br25           3.1872     6.9467     0.0477 Br      
  26 F26           -1.8709     5.8564    -0.5720 F       
  27 H27           -4.0148    -1.3211    -0.5380 H       
  28 H28            1.9484    -0.2238     1.8419 H       
  29 H29            3.9375    -1.6923     1.5912 H       
  30 H30            4.1788    -3.0578    -0.4420 H       
  31 H31            0.6082    -1.6070    -1.9801 H       
  32 H32           -4.9772    -3.3876    -0.7015 H       
  33 H33           -3.5120    -4.1256     0.0053 H       
  34 H34           -5.9759    -4.1305     1.2723 H       
  35 H35           -4.4194    -4.1647     2.1589 H       
  36 H36           -6.1807    -1.7389     1.5037 H       
  37 H37           -5.4605    -2.1992     3.0817 H       
  38 H38           -3.2365    -1.6227     2.3605 H       
  39 H39           -4.2143    -0.3448     1.5727 H       
  40 H40           -1.2531     3.3297    -0.3581 H       
  41 H41            2.9346     4.0075     0.1619 H       
  42 H42            0.2864     7.3106    -0.3597 H       
@<TRIPOS>BOND
   1    1    2 1
   2    1   18 1
   3    1    5 2
   4    2    3 1
   5    2    8 1
   6    3    4 2
   7    3    6 1
   8    4    5 1
   9    6    7 1
  10    7   14 1
  11    7   17 1
  12    7   27 1
  13    8    9 ar
  14    8   13 ar
  15    9   10 ar
  16    9   28 1
  17   10   11 ar
  18   10   29 1
  19   11   12 ar
  20   11   30 1
  21   12   13 ar
  22   13   31 1
  23   14   15 1
  24   14   32 1
  25   14   33 1
  26   15   16 1
  27   15   34 1
  28   15   35 1
  29   16   17 1
  30   16   36 1
  31   16   37 1
  32   17   38 1
  33   17   39 1
  34   18   19 1
  35   19   20 ar
  36   19   21 ar
  37   20   24 ar
  38   20   40 1
  39   21   22 ar
  40   21   41 1
  41   22   23 ar
  42   22   25 1
  43   23   24 ar
  44   23   42 1
  45   24   26 1

#	End of record

