#	Name: ASD01200008
#	Creating user name:	WinNT
#	Creation time:	15. 06. 2019 19:08

#	Modifying user name:	WinNT
#	Modification time:	15. 06. 2019 19:08

#	Program:	/corina/corina34_cracker 3.40 0067  02.08.2006

@<TRIPOS>MOLECULE
ASD01200008
  35   37    0    0    0
SMALL
NO_CHARGES


@<TRIPOS>ATOM
   1 C1            -0.0162     1.3436     0.0094 C.2     
   2 N2             0.0021    -0.0041     0.0020 N.am    
   3 C3             1.2143    -0.6821    -0.0132 C.2     
   4 O4             1.0292     1.9662     0.0028 O.2     
   5 C5            -1.2980     2.0605     0.0194 C.2     
   6 C6            -2.5440     1.5056     0.0228 C.2     
   7 N7            -3.4811     2.4838     0.0329 N.pl3   
   8 C8            -2.8807     3.7260     0.0365 C.ar    
   9 C9            -1.4916     3.5222     0.0342 C.ar    
  10 C10           -3.3795     5.0246     0.0461 C.ar    
  11 C11           -2.5115     6.0944     0.0474 C.ar    
  12 C12           -1.1389     5.8913     0.0393 C.ar    
  13 C13           -0.6255     4.6129     0.0367 C.ar    
  14 C14           -4.9281     2.2550     0.0386 C.3     
  15 C15           -5.3252     1.4695    -1.2129 C.3     
  16 C16           -5.3133     1.4564     1.2855 C.3     
  17 S17            1.3847    -2.3833    -0.0240 S.3     
  18 C18            3.1386    -2.2180    -0.0398 C.2     
  19 C19            3.4317    -0.9164    -0.0356 C.2     
  20 N20            2.3811    -0.1172    -0.0269 N.2     
  21 H21           -0.8313    -0.5005     0.0073 H       
  22 H22           -2.7521     0.4458     0.0181 H       
  23 H23           -4.4461     5.1940     0.0521 H       
  24 H24           -2.9031     7.1009     0.0545 H       
  25 H25           -0.4700     6.7392     0.0405 H       
  26 H26            0.4432     4.4573     0.0304 H       
  27 H27           -5.4475     3.2133     0.0461 H       
  28 H28           -5.0508     2.0385    -2.1013 H       
  29 H29           -4.8058     0.5112    -1.2204 H       
  30 H30           -6.4018     1.2993    -1.2087 H       
  31 H31           -5.0304     2.0160     2.1771 H       
  32 H32           -6.3899     1.2862     1.2897 H       
  33 H33           -4.7939     0.4981     1.2780 H       
  34 H34            3.8520    -3.0288    -0.0504 H       
  35 H35            4.4464    -0.5465    -0.0433 H       
@<TRIPOS>BOND
   1    1    2 am
   2    1    4 2
   3    1    5 1
   4    2    3 1
   5    2   21 1
   6    3   17 1
   7    3   20 2
   8    5    6 2
   9    5    9 1
  10    6    7 1
  11    6   22 1
  12    7    8 1
  13    7   14 1
  14    8    9 ar
  15    8   10 ar
  16    9   13 ar
  17   10   11 ar
  18   10   23 1
  19   11   12 ar
  20   11   24 1
  21   12   13 ar
  22   12   25 1
  23   13   26 1
  24   14   15 1
  25   14   16 1
  26   14   27 1
  27   15   28 1
  28   15   29 1
  29   15   30 1
  30   16   31 1
  31   16   32 1
  32   16   33 1
  33   17   18 1
  34   18   19 2
  35   18   34 1
  36   19   20 1
  37   19   35 1

#	End of record

