#	Name: ASD05143116
#	Creating user name:	WinNT
#	Creation time:	15. 06. 2019 20:57

#	Modifying user name:	WinNT
#	Modification time:	15. 06. 2019 20:57

#	Program:	/corina/corina34_cracker 3.40 0067  02.08.2006

@<TRIPOS>MOLECULE
ASD05143116
 144  148    0    0    0
SMALL
NO_CHARGES


@<TRIPOS>ATOM
   1 C1             1.9821     1.0442     4.5968 C.2     
   2 C2             2.4491    -0.1758     5.3482 C.3     
   3 N3             2.7811     2.1256     4.5045 N.am    
   4 O4             0.8892     1.0511     4.0710 O.2     
   5 C5             2.3271     3.3116     3.7741 C.3     
   6 C6             2.0433     2.9363     2.3182 C.3     
   7 C7             1.0684     3.8423     4.4106 C.2     
   8 C8             3.3446     2.5028     1.6403 C.3     
   9 C9             3.0608     2.1275     0.1845 C.3     
  10 N10            4.3068     1.7124    -0.4646 N.pl3   
  11 C11            4.2992     1.3271    -1.7844 C.2     
  12 N12            5.4685     0.9375    -2.3936 N.pl3   
  13 N13            3.1834     1.3312    -2.4581 N.2     
  14 O14            0.5083     3.2004     5.2738 O.2     
  15 N15            0.5652     5.0302     4.0206 N.am    
  16 C16           -0.7070     5.5001     4.5669 C.3     
  17 C17           -0.4453     6.6700     5.5253 C.3     
  18 C18           -1.2990     6.5031     6.7554 C.2     
  19 N19           -0.8611     7.0079     7.9393 N.am    
  20 C20           -1.7518     6.8439     9.1012 C.3     
  21 C21           -1.9352     8.2068     9.7721 C.3     
  22 C22           -3.3881     8.6590     9.6365 C.3     
  23 C23           -3.4453    10.1849     9.5624 C.3     
  24 C24           -4.8919    10.6467     9.7634 C.3     
  25 N25           -5.1495    11.7965     8.8724 N.am    
  26 C26           -5.0861    11.0709    11.1964 C.2     
  27 N27           -5.2836    10.1424    12.1532 N.am    
  28 O28           -5.0647    12.2478    11.4887 O.2     
  29 C29           -6.0118    11.6127     7.8350 C.2     
  30 O30           -6.4837    10.5185     7.6107 O.2     
  31 C31           -6.3763    12.7966     6.9769 C.3     
  32 N32           -6.9557    12.3037     5.7034 N.am    
  33 C33           -7.4103    13.6614     7.7071 C.3     
  34 C34           -6.0592    11.9664     4.7328 C.2     
  35 O35           -4.8706    11.9300     4.9976 O.2     
  36 C36           -6.5298    11.6789     3.3377 C.3     
  37 N37           -5.4385    11.0722     2.5435 N.am    
  38 C38           -7.7406    10.7429     3.3561 C.3     
  39 C39           -4.8167     9.9907     3.0531 C.2     
  40 O40           -5.1837     9.5068     4.1055 O.2     
  41 C41           -3.6354     9.3297     2.3678 C.3     
  42 C42           -7.6816    14.9066     6.9029 C.2     
  43 C43           -8.6357    15.0407     5.7995 C.ar    
  44 C44           -8.5400    16.3744     5.3627 C.ar    
  45 N45           -7.5949    16.9929     6.1502 N.pl3   
  46 C46           -7.0988    16.1049     7.0655 C.2     
  47 C47           -9.5270    14.1655     5.1755 C.ar    
  48 C48          -10.3026    14.6100     4.1423 C.ar    
  49 C49          -10.2115    15.9252     3.7072 C.ar    
  50 C50           -9.3397    16.8056     4.3091 C.ar    
  51 N51           -4.1400     7.9755     2.0415 N.am    
  52 C52           -2.4670     9.3059     3.3542 C.3     
  53 C53           -2.0281    10.7175     3.6472 C.ar    
  54 C54           -2.1788    11.2393     4.9206 C.ar    
  55 C55           -1.7751    12.5366     5.1884 C.ar    
  56 C56           -1.2224    13.3087     4.1845 C.ar    
  57 C57           -1.0723    12.7864     2.9131 C.ar    
  58 C58           -1.4697    11.4898     2.6461 C.ar    
  59 C59           -1.6486     5.9864     3.5033 C.2     
  60 O60           -2.7891     6.2965     3.8428 O.2     
  61 C61           -8.2723    10.5688     1.9321 C.3     
  62 C62           -9.4827     9.6331     1.9506 C.3     
  63 N63           -9.9919     9.4664     0.5871 N.pl3   
  64 C64          -11.0835     8.6637     0.3543 C.2     
  65 N65          -11.5614     8.5072    -0.9253 N.pl3   
  66 N66          -11.6655     8.0511     1.3467 N.2     
  67 N67           -1.3258     6.0782     2.2034 N.am    
  68 C68           -1.8901     7.0420     1.2546 C.3     
  69 C69           -3.3892     7.0617     1.3951 C.2     
  70 O70           -3.9983     6.1411     0.8559 O.2     
  71 C71           -0.8793     5.1998     0.0035 C.3     
  72 C72           -1.5207     6.5914    -0.1726 C.3     
  73 C73           -0.4136     5.2062     1.4718 C.3     
  74 O74           -2.3629     5.9281     6.6916 O.2     
  75 F75           -2.7198    10.4836     5.9012 F       
  76 H76            2.1528    -0.0940     6.3940 H       
  77 H77            1.9976    -1.0665     4.9113 H       
  78 H78            3.5346    -0.2493     5.2828 H       
  79 H79            3.6568     2.1187     4.9216 H       
  80 H80            3.1019     4.0776     3.8074 H       
  81 H81            1.3267     2.1156     2.2876 H       
  82 H82            1.6306     3.7986     1.7945 H       
  83 H83            4.0612     3.3236     1.6709 H       
  84 H84            3.7573     1.6405     2.1640 H       
  85 H85            2.3442     1.3067     0.1539 H       
  86 H86            2.6481     2.9898    -0.3392 H       
  87 H87            5.1372     1.7093     0.0367 H       
  88 H88            6.2989     0.9345    -1.8922 H       
  89 H89            5.4631     0.6657    -3.3247 H       
  90 H90            3.1780     1.0594    -3.3892 H       
  91 H91            1.0471     5.5735     3.3774 H       
  92 H92           -1.1793     4.6811     5.1257 H       
  93 H93            0.6075     6.6714     5.8085 H       
  94 H94           -0.6937     7.6072     5.0300 H       
  95 H95            0.0002     7.4537     8.0130 H       
  96 H96           -2.7180     6.4591     8.7815 H       
  97 H97           -1.3006     6.1498     9.8127 H       
  98 H98           -1.6758     8.1311    10.8276 H       
  99 H99           -1.2826     8.9360     9.2903 H       
 100 H100          -3.8169     8.2376     8.7262 H       
 101 H101          -3.9563     8.3119    10.5004 H       
 102 H102          -2.8124    10.6111    10.3420 H       
 103 H103          -3.0892    10.5181     8.5869 H       
 104 H104          -5.5747     9.8325     9.5264 H       
 105 H105          -4.7187    12.6560     9.0221 H       
 106 H106          -5.3007     9.2011    11.9194 H       
 107 H107          -5.4086    10.4154    13.0755 H       
 108 H108          -5.4864    13.3931     6.7714 H       
 109 H109          -7.9172    12.2335     5.5817 H       
 110 H110          -8.3355    13.0977     7.8272 H       
 111 H111          -7.0241    13.9392     8.6878 H       
 112 H112          -6.8250    12.6227     2.8636 H       
 113 H113          -5.1801    11.4484     1.6814 H       
 114 H114          -7.4437     9.7727     3.7543 H       
 115 H115          -8.5209    11.1707     3.9856 H       
 116 H116          -3.3690     9.8819     1.4682 H       
 117 H117          -7.3239    17.9208     6.0705 H       
 118 H118          -6.3445    16.3324     7.8042 H       
 119 H119          -9.6027    13.1408     5.5082 H       
 120 H120         -10.9918    13.9327     3.6599 H       
 121 H121         -10.8310    16.2617     2.8890 H       
 122 H122          -9.2764    17.8269     3.9635 H       
 123 H123          -5.0638     7.7279     2.3057 H       
 124 H124          -2.7825     8.8240     4.2796 H       
 125 H125          -1.6361     8.7498     2.9199 H       
 126 H126          -1.8925    12.9448     6.1813 H       
 127 H127          -0.9078    14.3206     4.3931 H       
 128 H128          -0.6405    13.3908     2.1291 H       
 129 H129          -1.3520    11.0829     1.6526 H       
 130 H130          -8.5692    11.5391     1.5340 H       
 131 H131          -7.4920    10.1411     1.3027 H       
 132 H132          -9.1858     8.6628     2.3488 H       
 133 H133         -10.2630    10.0608     2.5801 H       
 134 H134          -9.5588     9.9223    -0.1515 H       
 135 H135         -11.1283     8.9631    -1.6639 H       
 136 H136         -12.3316     7.9409    -1.0895 H       
 137 H137         -12.4357     7.4848     1.1825 H       
 138 H138          -1.4441     8.0291     1.4045 H       
 139 H139          -1.6149     4.4117    -0.1616 H       
 140 H140          -0.0282     5.0786    -0.6656 H       
 141 H141          -2.4100     6.5269    -0.7997 H       
 142 H142          -0.8008     7.2854    -0.6098 H       
 143 H143           0.6011     5.5935     1.5298 H       
 144 H144          -0.4637     4.1936     1.8690 H       
@<TRIPOS>BOND
   1    1    2 1
   2    1    3 am
   3    1    4 2
   4    2   76 1
   5    2   77 1
   6    2   78 1
   7    3    5 1
   8    3   79 1
   9    5    6 1
  10    5    7 1
  11    5   80 1
  12    6    8 1
  13    6   81 1
  14    6   82 1
  15    7   14 2
  16    7   15 am
  17    8    9 1
  18    8   83 1
  19    8   84 1
  20    9   10 1
  21    9   85 1
  22    9   86 1
  23   10   11 1
  24   10   87 1
  25   11   12 1
  26   11   13 2
  27   12   88 1
  28   12   89 1
  29   13   90 1
  30   15   16 1
  31   15   91 1
  32   16   17 1
  33   16   59 1
  34   16   92 1
  35   17   18 1
  36   17   93 1
  37   17   94 1
  38   18   19 am
  39   18   74 2
  40   19   20 1
  41   19   95 1
  42   20   21 1
  43   20   96 1
  44   20   97 1
  45   21   22 1
  46   21   98 1
  47   21   99 1
  48   22   23 1
  49   22  100 1
  50   22  101 1
  51   23   24 1
  52   23  102 1
  53   23  103 1
  54   24   25 1
  55   24   26 1
  56   24  104 1
  57   25   29 am
  58   25  105 1
  59   26   27 am
  60   26   28 2
  61   27  106 1
  62   27  107 1
  63   29   30 2
  64   29   31 1
  65   31   32 1
  66   31   33 1
  67   31  108 1
  68   32   34 am
  69   32  109 1
  70   33   42 1
  71   33  110 1
  72   33  111 1
  73   34   35 2
  74   34   36 1
  75   36   37 1
  76   36   38 1
  77   36  112 1
  78   37   39 am
  79   37  113 1
  80   38   61 1
  81   38  114 1
  82   38  115 1
  83   39   40 2
  84   39   41 1
  85   41   51 1
  86   41   52 1
  87   41  116 1
  88   42   43 1
  89   42   46 2
  90   43   44 ar
  91   43   47 ar
  92   44   45 1
  93   44   50 ar
  94   45   46 1
  95   45  117 1
  96   46  118 1
  97   47   48 ar
  98   47  119 1
  99   48   49 ar
 100   48  120 1
 101   49   50 ar
 102   49  121 1
 103   50  122 1
 104   51   69 am
 105   51  123 1
 106   52   53 1
 107   52  124 1
 108   52  125 1
 109   53   54 ar
 110   53   58 ar
 111   54   55 ar
 112   54   75 1
 113   55   56 ar
 114   55  126 1
 115   56   57 ar
 116   56  127 1
 117   57   58 ar
 118   57  128 1
 119   58  129 1
 120   59   60 2
 121   59   67 am
 122   61   62 1
 123   61  130 1
 124   61  131 1
 125   62   63 1
 126   62  132 1
 127   62  133 1
 128   63   64 1
 129   63  134 1
 130   64   65 1
 131   64   66 2
 132   65  135 1
 133   65  136 1
 134   66  137 1
 135   67   68 1
 136   67   73 1
 137   68   69 1
 138   68   72 1
 139   68  138 1
 140   69   70 2
 141   71   72 1
 142   71   73 1
 143   71  139 1
 144   71  140 1
 145   72  141 1
 146   72  142 1
 147   73  143 1
 148   73  144 1

#	End of record

