#	Name: ASD08170353
#	Creating user name:	WinNT
#	Creation time:	15. 06. 2019 21:17

#	Modifying user name:	WinNT
#	Modification time:	15. 06. 2019 21:17

#	Program:	/corina/corina34_cracker 3.40 0067  02.08.2006

@<TRIPOS>MOLECULE
ASD08170353
  68   73    0    0    0
SMALL
NO_CHARGES


@<TRIPOS>ATOM
   1 C1            -0.6494    12.4188    -5.4504 C.2     
   2 N2            -0.8447    11.1884    -5.0958 N.2     
   3 N3            -2.0447    10.7999    -5.0416 N.2     
   4 C4            -2.9710    11.6590    -5.3431 C.2     
   5 S5            -2.2280    13.1510    -5.7394 S.3     
   6 C6             0.6862    13.1036    -5.5855 C.3     
   7 C7             1.2079    12.9266    -7.0129 C.3     
   8 C8             2.5639    13.6219    -7.1500 C.3     
   9 C9             3.0857    13.4450    -8.5774 C.3     
  10 C10            4.4213    14.1298    -8.7125 C.2     
  11 C11            5.2875    14.2007    -9.9543 C.3     
  12 C12            6.4890    15.0048    -9.4980 C.2     
  13 N13            6.2695    15.2902    -8.2466 N.2     
  14 N14            5.0569    14.7799    -7.7952 N.2     
  15 N15            7.5845    15.3590   -10.2501 N.am    
  16 C16            8.5778    16.0814    -9.6951 C.2     
  17 O17            8.4634    16.5002    -8.5629 O.2     
  18 C18            9.8308    16.3686   -10.4817 C.3     
  19 C19           10.6765    15.1676   -10.8184 C.ar    
  20 N20           -4.3393    11.4106    -5.3394 N.am    
  21 C21           -4.8018    10.1906    -5.0014 C.2     
  22 O22           -4.0331     9.3371    -4.6121 O.2     
  23 C23           -6.2741     9.8871    -5.1071 C.3     
  24 C24           -7.1839    10.8010    -4.3273 C.ar    
  25 C25           -7.1440    10.8015    -2.9456 C.ar    
  26 C26           11.3086    14.4630    -9.8109 C.ar    
  27 C27           -7.9785    11.6398    -2.2303 C.ar    
  28 C28           -8.8526    12.4781    -2.8968 C.ar    
  29 C29           -8.8918    12.4783    -4.2785 C.ar    
  30 C30           -8.0543    11.6430    -4.9939 C.ar    
  31 C31           12.0844    13.3614   -10.1197 C.ar    
  32 C32           12.2277    12.9640   -11.4359 C.ar    
  33 C33           11.5949    13.6680   -12.4433 C.ar    
  34 C34           10.8156    14.7670   -12.1341 C.ar    
  35 C35            9.7774    17.5044   -11.5054 C.3     
  36 C36           10.5555    17.6863   -10.1998 C.3     
  37 C37           -6.7902     9.3482    -6.4429 C.3     
  38 C38           -6.6855     8.4187    -5.2312 C.3     
  39 H39            0.5733    14.1659    -5.3690 H       
  40 H40            1.3933    12.6627    -4.8829 H       
  41 H41            1.3208    11.8643    -7.2294 H       
  42 H42            0.5008    13.3675    -7.7155 H       
  43 H43            2.4511    14.6842    -6.9335 H       
  44 H44            3.2710    13.1810    -6.4474 H       
  45 H45            3.1986    12.3827    -8.7939 H       
  46 H46            2.3786    13.8859    -9.2800 H       
  47 H47            5.5905    13.2021   -10.2690 H       
  48 H48            4.7636    14.7160   -10.7593 H       
  49 H49            7.6423    15.0890   -11.1799 H       
  50 H50           -4.9609    12.1154    -5.5801 H       
  51 H51           -6.4610    10.1466    -2.4248 H       
  52 H52           11.1966    14.7735    -8.7826 H       
  53 H53           -7.9478    11.6397    -1.1507 H       
  54 H54           -9.5051    13.1325    -2.3379 H       
  55 H55           -9.5750    13.1329    -4.7993 H       
  56 H56           -8.0849    11.6432    -6.0735 H       
  57 H57           12.5788    12.8114    -9.3327 H       
  58 H58           12.8344    12.1037   -11.6773 H       
  59 H59           11.7071    13.3577   -13.4717 H       
  60 H60           10.3211    15.3171   -12.9211 H       
  61 H61           10.3544    17.3831   -12.4223 H       
  62 H62            8.8361    18.0439   -11.6100 H       
  63 H63           10.1259    18.3456    -9.4456 H       
  64 H64           11.6439    17.6846   -10.2581 H       
  65 H65           -7.7879     9.6545    -6.7575 H       
  66 H66           -6.0648     9.2133    -7.2452 H       
  67 H67           -5.8913     7.6721    -5.2367 H       
  68 H68           -7.6143     8.1137    -4.7492 H       
@<TRIPOS>BOND
   1    1    2 2
   2    1    6 1
   3    1    5 1
   4    2    3 1
   5    3    4 2
   6    4    5 1
   7    4   20 1
   8    6    7 1
   9    6   39 1
  10    6   40 1
  11    7    8 1
  12    7   41 1
  13    7   42 1
  14    8    9 1
  15    8   43 1
  16    8   44 1
  17    9   10 1
  18    9   45 1
  19    9   46 1
  20   10   11 1
  21   10   14 2
  22   11   12 1
  23   11   47 1
  24   11   48 1
  25   12   13 2
  26   12   15 1
  27   13   14 1
  28   15   16 am
  29   15   49 1
  30   16   17 2
  31   16   18 1
  32   18   19 1
  33   18   35 1
  34   18   36 1
  35   19   26 ar
  36   19   34 ar
  37   20   21 am
  38   20   50 1
  39   21   22 2
  40   21   23 1
  41   23   24 1
  42   23   37 1
  43   23   38 1
  44   24   25 ar
  45   24   30 ar
  46   25   27 ar
  47   25   51 1
  48   26   31 ar
  49   26   52 1
  50   27   28 ar
  51   27   53 1
  52   28   29 ar
  53   28   54 1
  54   29   30 ar
  55   29   55 1
  56   30   56 1
  57   31   32 ar
  58   31   57 1
  59   32   33 ar
  60   32   58 1
  61   33   34 ar
  62   33   59 1
  63   34   60 1
  64   35   36 1
  65   35   61 1
  66   35   62 1
  67   36   63 1
  68   36   64 1
  69   37   38 1
  70   37   65 1
  71   37   66 1
  72   38   67 1
  73   38   68 1

#	End of record

