#	Name: ASD05720259
#	Creating user name:	WinNT
#	Creation time:	15. 06. 2019 21:02

#	Modifying user name:	WinNT
#	Modification time:	15. 06. 2019 21:02

#	Program:	/corina/corina34_cracker 3.40 0067  02.08.2006

@<TRIPOS>MOLECULE
ASD05720259
 102  106    0    0    0
SMALL
NO_CHARGES


@<TRIPOS>ATOM
   1 C1             0.5116     1.0241     1.1162 C.2     
   2 N2             0.4120    -0.2388     0.6810 N.am    
   3 C3             1.6580    -0.6134    -0.0042 C.3     
   4 C4             2.5297     0.6535     0.0959 C.3     
   5 N5             1.6822     1.6074     0.8269 N.am    
   6 O6            -0.3815     1.5912     1.7151 O.2     
   7 C7            -1.6780    -3.1431     0.6624 C.2     
   8 N8            -0.6244    -2.3356     0.5059 N.2     
   9 C9            -0.6924    -1.0633     0.8501 C.2     
  10 C10           -1.8855    -0.5410     1.3897 C.2     
  11 C11           -2.9534    -1.3552     1.5494 C.2     
  12 N12           -2.8526    -2.6688     1.1836 N.pl3   
  13 N13           -3.7639    -3.7299     1.2270 N.2     
  14 C14           -3.1916    -4.8114     0.7582 C.2     
  15 C15           -1.8788    -4.5013     0.3822 C.2     
  16 C16           -0.8881    -5.4342    -0.1999 C.ar    
  17 C17           -0.6490    -6.6678     0.4083 C.ar    
  18 C18            0.2725    -7.5354    -0.1341 C.ar    
  19 C19            0.9673    -7.1817    -1.2907 C.ar    
  20 C20            0.7289    -5.9493    -1.8988 C.ar    
  21 C21           -0.1965    -5.0832    -1.3608 C.ar    
  22 N22            3.4789    -9.0342    -3.1449 N.pl3   
  23 N23            2.6756    -7.8979    -2.9559 N.2     
  24 C24            1.9604    -8.1162    -1.8737 C.2     
  25 N25            2.2780    -9.3231    -1.3855 N.2     
  26 C26            3.1871    -9.8804    -2.1409 C.2     
  27 C27            4.4412    -9.2569    -4.2269 C.3     
  28 O28            5.0548   -10.5370    -4.0627 O.3     
  29 C29            6.0157   -10.8547    -5.0715 C.3     
  30 C30            6.6048   -12.2397    -4.7967 C.3     
  31 Si31           7.8575   -12.6539    -6.1119 Si      
  32 C32            9.2208   -11.3843    -6.0929 C.3     
  33 C33            8.5748   -14.3404    -5.7772 C.3     
  34 C34            7.0297   -12.6512    -7.7809 C.3     
  35 C35            1.3821    -0.9611    -1.4684 C.3     
  36 C36            0.5227    -2.2250    -1.5392 C.3     
  37 C37            0.6402     0.1981    -2.1368 C.3     
  38 C38            2.0584     2.9779     1.1823 C.3     
  39 C39            2.7345     2.9816     2.5548 C.3     
  40 C40            3.1275     4.4129     2.9259 C.3     
  41 O41            3.7589     4.4163     4.2078 O.3     
  42 Si42           4.2252     5.8952     4.7137 Si      
  43 C43            5.4427     6.6117     3.4992 C.3     
  44 C44            2.7366     7.0092     4.8312 C.3     
  45 C45            5.0288     5.7538     6.3885 C.3     
  46 C46            6.2513     4.8389     6.2920 C.3     
  47 C47            5.4661     7.1410     6.8631 C.3     
  48 C48            4.0289     5.1653     7.3859 C.3     
  49 H49            2.1381    -1.4493     0.5046 H       
  50 H50            3.4426     0.4467     0.6544 H       
  51 H51            2.7659     1.0348    -0.8975 H       
  52 H52           -1.9460     0.4994     1.6732 H       
  53 H53           -3.8753    -0.9723     1.9615 H       
  54 H54           -3.6572    -5.7820     0.6724 H       
  55 H55           -1.1864    -6.9415     1.3042 H       
  56 H56            0.4576    -8.4898     0.3363 H       
  57 H57            1.2673    -5.6761    -2.7943 H       
  58 H58           -0.3839    -4.1307    -1.8341 H       
  59 H59            3.6286   -10.8538    -1.9856 H       
  60 H60            3.9242    -9.2222    -5.1859 H       
  61 H61            5.2062    -8.4810    -4.1983 H       
  62 H62            5.5313   -10.8531    -6.0480 H       
  63 H63            6.8133   -10.1119    -5.0604 H       
  64 H64            7.0892   -12.2413    -3.8202 H       
  65 H65            5.8072   -12.9825    -4.8078 H       
  66 H66            9.7052   -11.3859    -5.1164 H       
  67 H67            9.9537   -11.6266    -6.8624 H       
  68 H68            8.8011   -10.3976    -6.2887 H       
  69 H69            7.7772   -15.0832    -5.7884 H       
  70 H70            9.3078   -14.5827    -6.5468 H       
  71 H71            9.0592   -14.3420    -4.8008 H       
  72 H72            6.6100   -11.6645    -7.9767 H       
  73 H73            7.7626   -12.8936    -8.5504 H       
  74 H74            6.2320   -13.3940    -7.7920 H       
  75 H75            2.3262    -1.1343    -1.9849 H       
  76 H76            0.5100    -2.5988    -2.5631 H       
  77 H77            0.9405    -2.9858    -0.8799 H       
  78 H78           -0.4944    -1.9908    -1.2252 H       
  79 H79            1.2525     1.0985    -2.0864 H       
  80 H80            0.4437    -0.0496    -3.1799 H       
  81 H81           -0.3039     0.3713    -1.6203 H       
  82 H82            2.7492     3.3702     0.4359 H       
  83 H83            1.1659     3.6027     1.2153 H       
  84 H84            2.0438     2.5893     3.3011 H       
  85 H85            3.6271     2.3567     2.5218 H       
  86 H86            3.8182     4.8052     2.1795 H       
  87 H87            2.2349     5.0377     2.9589 H       
  88 H88            4.9725     6.6944     2.5193 H       
  89 H89            5.7542     7.6000     3.8373 H       
  90 H90            6.3136     5.9599     3.4304 H       
  91 H91            2.0242     6.5899     5.5418 H       
  92 H92            3.0481     7.9974     5.1693 H       
  93 H93            2.2664     7.0919     3.8514 H       
  94 H94            6.9637     5.2581     5.5814 H       
  95 H95            6.7215     4.7562     7.2718 H       
  96 H96            5.9398     3.8506     5.9539 H       
  97 H97            4.5952     7.7928     6.9318 H       
  98 H98            5.9363     7.0583     7.8430 H       
  99 H99            6.1785     7.5602     6.1525 H       
 100 H100           3.7173     4.1770     7.0478 H       
 101 H101           4.4991     5.0826     8.3658 H       
 102 H102           3.1580     5.8171     7.4547 H       
@<TRIPOS>BOND
   1    1    2 am
   2    1    5 am
   3    1    6 2
   4    2    3 1
   5    2    9 1
   6    3    4 1
   7    3   35 1
   8    3   49 1
   9    4    5 1
  10    4   50 1
  11    4   51 1
  12    5   38 1
  13    7    8 1
  14    7   12 1
  15    7   15 2
  16    8    9 2
  17    9   10 1
  18   10   11 2
  19   10   52 1
  20   11   12 1
  21   11   53 1
  22   12   13 1
  23   13   14 2
  24   14   15 1
  25   14   54 1
  26   15   16 1
  27   16   17 ar
  28   16   21 ar
  29   17   18 ar
  30   17   55 1
  31   18   19 ar
  32   18   56 1
  33   19   20 ar
  34   19   24 1
  35   20   21 ar
  36   20   57 1
  37   21   58 1
  38   22   23 1
  39   22   26 1
  40   22   27 1
  41   23   24 2
  42   24   25 1
  43   25   26 2
  44   26   59 1
  45   27   28 1
  46   27   60 1
  47   27   61 1
  48   28   29 1
  49   29   30 1
  50   29   62 1
  51   29   63 1
  52   30   31 1
  53   30   64 1
  54   30   65 1
  55   31   32 1
  56   31   33 1
  57   31   34 1
  58   32   66 1
  59   32   67 1
  60   32   68 1
  61   33   69 1
  62   33   70 1
  63   33   71 1
  64   34   72 1
  65   34   73 1
  66   34   74 1
  67   35   36 1
  68   35   37 1
  69   35   75 1
  70   36   76 1
  71   36   77 1
  72   36   78 1
  73   37   79 1
  74   37   80 1
  75   37   81 1
  76   38   39 1
  77   38   82 1
  78   38   83 1
  79   39   40 1
  80   39   84 1
  81   39   85 1
  82   40   41 1
  83   40   86 1
  84   40   87 1
  85   41   42 1
  86   42   43 1
  87   42   44 1
  88   42   45 1
  89   43   88 1
  90   43   89 1
  91   43   90 1
  92   44   91 1
  93   44   92 1
  94   44   93 1
  95   45   46 1
  96   45   48 1
  97   45   47 1
  98   46   94 1
  99   46   95 1
 100   46   96 1
 101   47   97 1
 102   47   98 1
 103   47   99 1
 104   48  100 1
 105   48  101 1
 106   48  102 1

#	End of record

