#	Name: ASD03330181
#	Creating user name:	WinNT
#	Creation time:	15. 06. 2019 20:36

#	Modifying user name:	WinNT
#	Modification time:	15. 06. 2019 20:36

#	Program:	/corina/corina34_cracker 3.40 0067  02.08.2006

@<TRIPOS>MOLECULE
ASD03330181
  51   54    0    0    0
SMALL
NO_CHARGES


@<TRIPOS>ATOM
   1 C1            -0.5999     0.6166    -2.9901 C.ar    
   2 C2            -1.9093     0.8582    -3.3635 C.ar    
   3 C3            -2.9489     0.3518    -2.6085 C.ar    
   4 C4            -2.6783    -0.4007    -1.4732 C.ar    
   5 C5            -1.3623    -0.6415    -1.1008 C.ar    
   6 C6            -0.3271    -0.1371    -1.8633 C.ar    
   7 N7            -3.7294    -0.9148    -0.7057 N.am    
   8 C8            -4.8841    -0.2280    -0.5983 C.2     
   9 N9            -5.9331    -0.7707     0.0508 N.am    
  10 O10           -4.9794     0.8812    -1.0871 O.2     
  11 C11           -7.0946    -0.0174     0.2566 C.ar    
  12 C12           -8.3333    -0.6400     0.2601 C.ar    
  13 C13           -9.4863     0.1138     0.4653 C.ar    
  14 C14           -9.3884     1.4896     0.6658 C.ar    
  15 C15           -8.1509     2.1020     0.6609 C.ar    
  16 C16           -7.0060     1.3540     0.4631 C.ar    
  17 C17          -10.8151    -0.5458     0.4698 C.ar    
  18 N18          -10.8990    -1.8568     0.2775 N.ar    
  19 C19          -11.9610     0.2146     0.6812 C.ar    
  20 C20          -13.1981    -0.4115     0.6840 C.ar    
  21 C21          -13.2492    -1.7787     0.4751 C.ar    
  22 C22          -12.0646    -2.4820     0.2748 C.ar    
  23 N23          -12.1077    -3.8553     0.0644 N.3     
  24 C24          -10.7521    -4.4035    -0.1250 C.3     
  25 C25          -10.5507    -5.5026     0.9394 C.3     
  26 C26          -12.0036    -5.9065     1.3040 C.3     
  27 C27          -12.7398    -4.5470     1.2079 C.3     
  28 N28            0.5120     1.1609    -3.8016 N.pl3   
  29 O29            0.2731     1.8207    -4.7971 O.2     
  30 O30            1.6657     0.9488    -3.4738 O.2     
  31 H31           -2.1191     1.4438    -4.2464 H       
  32 H32           -3.9713     0.5411    -2.9005 H       
  33 H33           -1.1486    -1.2261    -0.2182 H       
  34 H34            0.6966    -0.3241    -1.5742 H       
  35 H35           -3.6271    -1.7655    -0.2510 H       
  36 H36           -5.8832    -1.6834     0.3754 H       
  37 H37           -8.4040    -1.7063     0.1039 H       
  38 H38          -10.2807     2.0768     0.8248 H       
  39 H39           -8.0772     3.1682     0.8165 H       
  40 H40           -6.0404     1.8378     0.4601 H       
  41 H41          -11.8876     1.2801     0.8417 H       
  42 H42          -14.1027     0.1557     0.8462 H       
  43 H43          -14.1977    -2.2952     0.4720 H       
  44 H44          -10.6617    -4.8327    -1.1228 H       
  45 H45          -10.0112    -3.6157     0.0107 H       
  46 H46          -10.0086    -6.3503     0.5203 H       
  47 H47          -10.0312    -5.1044     1.8110 H       
  48 H48          -12.4035    -6.6189     0.5824 H       
  49 H49          -12.0550    -6.3078     2.3161 H       
  50 H50          -12.5982    -3.9732     2.1238 H       
  51 H51          -13.8015    -4.7030     1.0172 H       
@<TRIPOS>BOND
   1    1    2 ar
   2    1   28 1
   3    1    6 ar
   4    2    3 ar
   5    2   31 1
   6    3    4 ar
   7    3   32 1
   8    4    5 ar
   9    4    7 1
  10    5    6 ar
  11    5   33 1
  12    6   34 1
  13    7    8 am
  14    7   35 1
  15    8    9 am
  16    8   10 2
  17    9   11 1
  18    9   36 1
  19   11   12 ar
  20   11   16 ar
  21   12   13 ar
  22   12   37 1
  23   13   14 ar
  24   13   17 1
  25   14   15 ar
  26   14   38 1
  27   15   16 ar
  28   15   39 1
  29   16   40 1
  30   17   18 ar
  31   17   19 ar
  32   18   22 ar
  33   19   20 ar
  34   19   41 1
  35   20   21 ar
  36   20   42 1
  37   21   22 ar
  38   21   43 1
  39   22   23 1
  40   23   24 1
  41   23   27 1
  42   24   25 1
  43   24   44 1
  44   24   45 1
  45   25   26 1
  46   25   46 1
  47   25   47 1
  48   26   27 1
  49   26   48 1
  50   26   49 1
  51   27   50 1
  52   27   51 1
  53   28   29 2
  54   28   30 2

#	End of record

