#	Name: ASD01812842
#	Creating user name:	WinNT
#	Creation time:	15. 06. 2019 19:29

#	Modifying user name:	WinNT
#	Modification time:	15. 06. 2019 19:29

#	Program:	/corina/corina34_cracker 3.40 0067  02.08.2006

@<TRIPOS>MOLECULE
ASD01812842
  49   53    0    0    0
SMALL
NO_CHARGES


@<TRIPOS>ATOM
   1 N1            -0.0158     1.3130     0.0093 N.ar    
   2 C2             0.0021    -0.0041     0.0020 C.ar    
   3 N3             1.1297    -0.6935    -0.0120 N.ar    
   4 C4             2.2939    -0.0791    -0.0198 C.ar    
   5 C5             2.3345     1.3180    -0.0132 C.ar    
   6 C6             1.1137     2.0142     0.0022 C.ar    
   7 C7             3.7271    -0.5440    -0.0356 C.3     
   8 N8             4.5519     0.6704    -0.0372 N.am    
   9 C9             3.7404     1.7431    -0.0242 C.2     
  10 C10            6.0164     0.7078    -0.0500 C.3     
  11 C11            6.5060     0.7273    -1.4751 C.ar    
  12 C12            6.6993     1.9352    -2.1208 C.ar    
  13 C13            7.1480     1.9588    -3.4259 C.ar    
  14 C14            7.4062     0.7631    -4.0928 C.ar    
  15 C15            7.2098    -0.4506    -3.4376 C.ar    
  16 C16            6.7659    -0.4626    -2.1307 C.ar    
  17 O17            1.0885     3.3666     0.0097 O.3     
  18 O18            4.1168     2.8993    -0.0215 O.2     
  19 C19           -0.1242     3.9827     0.0246 C.ar    
  20 C20           -0.7325     4.2911     1.2340 C.ar    
  21 C21           -1.9658     4.9182     1.2469 C.ar    
  22 C22           -2.5935     5.2377     0.0550 C.ar    
  23 C23           -1.9887     4.9311    -1.1521 C.ar    
  24 C24           -0.7528     4.3092    -1.1695 C.ar    
  25 F25           -3.7981     5.8492     0.0697 F       
  26 F26           -0.1208     3.9787     2.3974 F       
  27 F27           -0.1607     4.0148    -2.3476 F       
  28 N28            8.1129     1.8563    -6.2234 N.2     
  29 C29            7.8884     0.7823    -5.4964 C.2     
  30 C30            8.1866    -0.3455    -6.2856 C.2     
  31 C31            8.5928     0.0927    -7.4971 C.2     
  32 N32            8.5568     1.4425    -7.4858 N.pl3   
  33 C33            8.9185     2.3215    -8.6006 C.3     
  34 H34           -0.9363    -0.5387     0.0081 H       
  35 H35            3.9378    -1.1389     0.8531 H       
  36 H36            3.9211    -1.1299    -0.9340 H       
  37 H37            6.3615     1.6044     0.4651 H       
  38 H38            6.4068    -0.1750     0.4563 H       
  39 H39            6.4984     2.8614    -1.6030 H       
  40 H40            7.2982     2.9024    -3.9293 H       
  41 H41            7.4085    -1.3804    -3.9500 H       
  42 H42            6.6172    -1.4028    -1.6205 H       
  43 H43           -2.4393     5.1583     2.1874 H       
  44 H44           -2.4801     5.1812    -2.0808 H       
  45 H45            8.1055    -1.3772    -5.9768 H       
  46 H46            8.8934    -0.5276    -8.3286 H       
  47 H47            9.9799     2.5629    -8.5434 H       
  48 H48            8.7111     1.8161    -9.5438 H       
  49 H49            8.3336     3.2395    -8.5440 H       
@<TRIPOS>BOND
   1    1    2 ar
   2    1    6 ar
   3    2    3 ar
   4    2   34 1
   5    3    4 ar
   6    4    7 1
   7    4    5 ar
   8    5    6 ar
   9    5    9 1
  10    6   17 1
  11    7    8 1
  12    7   35 1
  13    7   36 1
  14    8    9 am
  15    8   10 1
  16    9   18 2
  17   10   11 1
  18   10   37 1
  19   10   38 1
  20   11   12 ar
  21   11   16 ar
  22   12   13 ar
  23   12   39 1
  24   13   14 ar
  25   13   40 1
  26   14   15 ar
  27   14   29 1
  28   15   16 ar
  29   15   41 1
  30   16   42 1
  31   17   19 1
  32   19   20 ar
  33   19   24 ar
  34   20   21 ar
  35   20   26 1
  36   21   22 ar
  37   21   43 1
  38   22   23 ar
  39   22   25 1
  40   23   24 ar
  41   23   44 1
  42   24   27 1
  43   28   29 2
  44   28   32 1
  45   29   30 1
  46   30   31 2
  47   30   45 1
  48   31   32 1
  49   31   46 1
  50   32   33 1
  51   33   47 1
  52   33   48 1
  53   33   49 1

#	End of record

