#	Name: ASD04912002
#	Creating user name:	WinNT
#	Creation time:	15. 06. 2019 20:56

#	Modifying user name:	WinNT
#	Modification time:	15. 06. 2019 20:56

#	Program:	/corina/corina34_cracker 3.40 0067  02.08.2006

@<TRIPOS>MOLECULE
ASD04912002
  51   54    0    0    0
SMALL
NO_CHARGES


@<TRIPOS>ATOM
   1 C1            -0.0114     1.3243    -0.6272 C.ar    
   2 C2             0.1364     0.3767     0.3681 C.ar    
   3 C3             1.3441    -0.2841     0.5237 C.ar    
   4 C4             2.4121     0.0112    -0.3303 C.ar    
   5 C5             2.2516     0.9684    -1.3309 C.ar    
   6 C6             1.0431     1.6189    -1.4737 C.ar    
   7 O7             1.4908    -1.2151     1.5021 O.3     
   8 C8             0.3574    -1.4638     2.3361 C.3     
   9 C9             0.7106    -2.5341     3.3709 C.3     
  10 C10           -0.5029    -2.8004     4.2638 C.3     
  11 C11            3.7075    -0.6896    -0.1717 C.2     
  12 N12            3.8793    -2.0131    -0.0316 N.2     
  13 C13            5.1605    -2.2812     0.0837 C.2     
  14 N14            5.8691    -1.1174     0.0205 N.pl3   
  15 C15            4.9596    -0.0967    -0.1473 C.2     
  16 C16            5.7414    -3.6297     0.2552 C.ar    
  17 C17            4.9098    -4.7497     0.3055 C.ar    
  18 C18            5.4577    -6.0053     0.4656 C.ar    
  19 C19            6.8299    -6.1561     0.5765 C.ar    
  20 C20            7.6600    -5.0487     0.5273 C.ar    
  21 C21            7.1242    -3.7886     0.3617 C.ar    
  22 Cl22           7.5121    -7.7396     0.7784 Cl      
  23 C23            5.2585     1.3423    -0.2678 C.ar    
  24 C24            6.2689     1.7993    -1.1255 C.ar    
  25 C25            6.5141     3.1531    -1.2066 C.ar    
  26 N26            5.8133     4.0134    -0.4914 N.ar    
  27 C27            4.8535     3.6265     0.3281 C.ar    
  28 C28            4.5364     2.2926     0.4677 C.ar    
  29 C29           -0.1496    -3.8707     5.2985 C.3     
  30 H30           -0.9558     1.8342    -0.7477 H       
  31 H31           -0.6904     0.1513     1.0254 H       
  32 H32            3.0724     1.2012    -1.9931 H       
  33 H33            0.9195     2.3604    -2.2492 H       
  34 H34            0.0736    -0.5439     2.8473 H       
  35 H35           -0.4750    -1.8110     1.7240 H       
  36 H36            0.9944    -3.4540     2.8597 H       
  37 H37            1.5430    -2.1869     3.9830 H       
  38 H38           -0.7867    -1.8805     4.7750 H       
  39 H39           -1.3353    -3.1475     3.6517 H       
  40 H40            6.8330    -1.0262     0.0789 H       
  41 H41            3.8396    -4.6333     0.2195 H       
  42 H42            4.8153    -6.8726     0.5051 H       
  43 H43            8.7293    -5.1724     0.6146 H       
  44 H44            7.7725    -2.9257     0.3235 H       
  45 H45            6.8465     1.1012    -1.7133 H       
  46 H46            7.2906     3.5151    -1.8641 H       
  47 H47            4.3063     4.3660     0.8939 H       
  48 H48            3.7498     1.9834     1.1401 H       
  49 H49            0.1342    -4.7906     4.7874 H       
  50 H50            0.6828    -3.5235     5.9107 H       
  51 H51           -1.0141    -4.0604     5.9347 H       
@<TRIPOS>BOND
   1    1    2 ar
   2    1    6 ar
   3    1   30 1
   4    2    3 ar
   5    2   31 1
   6    3    4 ar
   7    3    7 1
   8    4    5 ar
   9    4   11 1
  10    5    6 ar
  11    5   32 1
  12    6   33 1
  13    7    8 1
  14    8    9 1
  15    8   34 1
  16    8   35 1
  17    9   10 1
  18    9   36 1
  19    9   37 1
  20   10   29 1
  21   10   38 1
  22   10   39 1
  23   11   12 1
  24   11   15 2
  25   12   13 2
  26   13   14 1
  27   13   16 1
  28   14   15 1
  29   14   40 1
  30   15   23 1
  31   16   17 ar
  32   16   21 ar
  33   17   18 ar
  34   17   41 1
  35   18   19 ar
  36   18   42 1
  37   19   20 ar
  38   19   22 1
  39   20   21 ar
  40   20   43 1
  41   21   44 1
  42   23   24 ar
  43   23   28 ar
  44   24   25 ar
  45   24   45 1
  46   25   26 ar
  47   25   46 1
  48   26   27 ar
  49   27   28 ar
  50   27   47 1
  51   28   48 1
  52   29   49 1
  53   29   50 1
  54   29   51 1

#	End of record

