#	Name: ASD05740184
#	Creating user name:	WinNT
#	Creation time:	15. 06. 2019 21:03

#	Modifying user name:	WinNT
#	Modification time:	15. 06. 2019 21:03

#	Program:	/corina/corina34_cracker 3.40 0067  02.08.2006

@<TRIPOS>MOLECULE
ASD05740184
  61   65    0    0    0
SMALL
NO_CHARGES


@<TRIPOS>ATOM
   1 C1             1.2507    -1.3238     0.0102 C.3     
   2 N2             0.3615    -0.6210     0.9456 N.3     
   3 C3            -0.9633    -1.0450     0.7925 C.ar    
   4 C4            -1.9632    -0.4993     1.5870 C.ar    
   5 C5            -3.2703    -0.9177     1.4360 C.ar    
   6 C6            -3.5851    -1.8844     0.4900 C.ar    
   7 C7            -2.5853    -2.4303    -0.3041 C.ar    
   8 C8            -1.2791    -2.0072    -0.1578 C.ar    
   9 N9            -4.9111    -2.3091     0.3372 N.pl3   
  10 C10           -5.9476    -1.4124     0.5083 C.ar    
  11 N11           -5.6581    -0.1299     0.6997 N.ar    
  12 N12           -7.1930    -1.8629     0.4699 N.ar    
  13 C13           -8.2131    -1.0298     0.6304 C.ar    
  14 C14           -7.9433     0.3403     0.8419 C.ar    
  15 C15           -6.6113     0.7688     0.8686 C.ar    
  16 N16           -9.5124    -1.4657     0.5954 N.am    
  17 C17          -10.5345    -0.6072     0.7595 C.2     
  18 C18          -10.3215     0.7697     0.9731 C.2     
  19 C19           -9.0575     1.2663     1.0197 C.2     
  20 C20           -9.7915    -2.8870     0.3755 C.3     
  21 O21          -11.6766    -1.0313     0.7222 O.2     
  22 C22            0.8143    -0.7984     2.3323 C.3     
  23 C23            2.2364    -0.2510     2.4757 C.3     
  24 N24            3.1257    -0.9539     1.5404 N.3     
  25 C25            2.6728    -0.7765     0.1536 C.3     
  26 C26           -9.8013    -3.6076     1.6990 C.ar    
  27 C27           -9.9860    -5.6391     2.9526 C.ar    
  28 C28           -9.8187    -4.9297     4.1270 C.ar    
  29 C29           -9.6490    -3.5582     4.0879 C.ar    
  30 C30           -9.6401    -2.8973     2.8741 C.ar    
  31 C31            4.5164    -0.5088     1.7011 C.3     
  32 C32           -9.9770    -4.9780     1.7384 C.ar    
  33 C33          -10.1594    -5.7514     0.4580 C.3     
  34 H34            1.2469    -2.3901     0.2365 H       
  35 H35            0.9019    -1.1671    -1.0105 H       
  36 H36           -1.7183     0.2519     2.3232 H       
  37 H37           -4.0479    -0.4934     2.0539 H       
  38 H38           -2.8300    -3.1826    -1.0393 H       
  39 H39           -0.5015    -2.4318    -0.7754 H       
  40 H40           -5.1015    -3.2330     0.1112 H       
  41 H41           -6.3684     1.8090     1.0283 H       
  42 H42          -11.1652     1.4317     1.1004 H       
  43 H43           -8.8819     2.3193     1.1831 H       
  44 H44          -10.7638    -2.9963    -0.1049 H       
  45 H45           -9.0198    -3.3140    -0.2650 H       
  46 H46            0.1474    -0.2585     3.0045 H       
  47 H47            0.8055    -1.8587     2.5849 H       
  48 H48            2.2402     0.8152     2.2495 H       
  49 H49            2.5852    -0.4078     3.4965 H       
  50 H50            3.3397    -1.3163    -0.5186 H       
  51 H51            2.6816     0.2838    -0.0990 H       
  52 H52          -10.1186    -6.7105     2.9832 H       
  53 H53           -9.8257    -5.4462     5.0755 H       
  54 H54           -9.5183    -3.0039     5.0056 H       
  55 H55           -9.5069    -1.8259     2.8435 H       
  56 H56            4.8480    -0.7133     2.7191 H       
  57 H57            5.1530    -1.0447     0.9970 H       
  58 H58            4.5801     0.5617     1.5063 H       
  59 H59           -9.1863    -6.0701     0.0842 H       
  60 H60          -10.7802    -6.6270     0.6477 H       
  61 H61          -10.6435    -5.1166    -0.2841 H       
@<TRIPOS>BOND
   1    1    2 1
   2    1   25 1
   3    1   34 1
   4    1   35 1
   5    2    3 1
   6    2   22 1
   7    3    4 ar
   8    3    8 ar
   9    4    5 ar
  10    4   36 1
  11    5    6 ar
  12    5   37 1
  13    6    7 ar
  14    6    9 1
  15    7    8 ar
  16    7   38 1
  17    8   39 1
  18    9   10 1
  19    9   40 1
  20   10   11 ar
  21   10   12 ar
  22   11   15 ar
  23   12   13 ar
  24   13   14 ar
  25   13   16 1
  26   14   15 ar
  27   14   19 1
  28   15   41 1
  29   16   17 am
  30   16   20 1
  31   17   18 1
  32   17   21 2
  33   18   19 2
  34   18   42 1
  35   19   43 1
  36   20   26 1
  37   20   44 1
  38   20   45 1
  39   22   23 1
  40   22   46 1
  41   22   47 1
  42   23   24 1
  43   23   48 1
  44   23   49 1
  45   24   25 1
  46   24   31 1
  47   25   50 1
  48   25   51 1
  49   26   30 ar
  50   26   32 ar
  51   27   28 ar
  52   27   32 ar
  53   27   52 1
  54   28   29 ar
  55   28   53 1
  56   29   30 ar
  57   29   54 1
  58   30   55 1
  59   31   56 1
  60   31   57 1
  61   31   58 1
  62   32   33 1
  63   33   59 1
  64   33   60 1
  65   33   61 1

#	End of record

