#	Name: ASD03240262
#	Creating user name:	WinNT
#	Creation time:	15. 06. 2019 20:34

#	Modifying user name:	WinNT
#	Modification time:	15. 06. 2019 20:34

#	Program:	/corina/corina34_cracker 3.40 0067  02.08.2006

@<TRIPOS>MOLECULE
ASD03240262
 108  114    0    0    0
SMALL
NO_CHARGES


@<TRIPOS>ATOM
   1 C1            -0.1142     1.2183    -0.6104 C.2     
   2 N2            -0.0097    -0.0234    -0.0295 N.pl3   
   3 C3            -3.6698     2.2405    -0.0315 C.3     
   4 C4            -2.4758     1.2896     0.0739 C.3     
   5 N5            -1.3115     1.8934    -0.5788 N.pl3   
   6 N6             0.9231     1.7578    -1.1864 N.2     
   7 N7            -4.8341     1.6367     0.6212 N.pl3   
   8 C8            -6.0435     2.3186     0.6532 C.ar    
   9 C9            -7.1583     1.7403     1.2782 C.ar    
  10 C10           -8.3651     2.4249     1.3081 C.ar    
  11 C11           -8.4626     3.6854     0.7158 C.ar    
  12 C12           -7.3460     4.2541     0.0949 C.ar    
  13 C13           -6.1476     3.5768     0.0707 C.ar    
  14 C14           -9.7434     4.4169     0.7445 C.2     
  15 N15           -9.8373     5.6337     0.1727 N.am    
  16 O16          -10.7144     3.9220     1.2841 O.2     
  17 C17          -11.0782     6.2799     0.1007 C.ar    
  18 C18          -11.1492     7.6617     0.2183 C.ar    
  19 C19          -12.2365     5.5390    -0.0939 C.ar    
  20 C20          -13.4594     6.1758    -0.1653 C.ar    
  21 C21          -13.5312     7.5573    -0.0420 C.ar    
  22 C22          -12.3721     8.2986     0.1479 C.ar    
  23 N23          -14.7703     8.2027    -0.1148 N.pl3   
  24 C24          -14.8459     9.6599     0.0152 C.3     
  25 C25          -15.9922     7.4212    -0.3211 C.3     
  26 C26           -7.0476     0.4006     1.9050 C.ar    
  27 C27           -7.4970     0.1991     3.2088 C.ar    
  28 C28           -7.3920    -1.0497     3.7868 C.ar    
  29 C29           -6.8415    -2.1002     3.0749 C.ar    
  30 C30           -6.3934    -1.9058     1.7807 C.ar    
  31 C31           -6.4992    -0.6628     1.1904 C.ar    
  32 C32          -16.5633     7.0199     1.0144 C.ar    
  33 C33          -14.7198    10.2930    -1.3465 C.ar    
  34 C34          -17.4735     7.8446     1.6506 C.ar    
  35 C35          -17.9997     7.4820     2.8739 C.ar    
  36 C36          -17.6124     6.2826     3.4680 C.ar    
  37 C37          -16.6952     5.4557     2.8228 C.ar    
  38 C38          -16.1796     5.8255     1.5971 C.ar    
  39 C39          -15.8529    10.5326    -2.1027 C.ar    
  40 C40          -15.7432    11.1121    -3.3505 C.ar    
  41 C41          -14.4879    11.4560    -3.8481 C.ar    
  42 C42          -13.3498    11.2124    -3.0821 C.ar    
  43 C43          -13.4717    10.6376    -1.8332 C.ar    
  44 C44          -18.1744     5.8876     4.7834 C.ar    
  45 C45          -14.3637    12.0790    -5.1892 C.ar    
  46 C46          -17.7871     4.6882     5.3775 C.ar    
  47 C47          -18.3130     4.3258     6.6010 C.ar    
  48 C48          -19.2233     5.1505     7.2371 C.ar    
  49 C49          -19.6116     6.3420     6.6516 C.ar    
  50 C50          -19.0870     6.7175     5.4315 C.ar    
  51 C51          -13.1084    12.4229    -5.6868 C.ar    
  52 C52          -12.9986    13.0020    -6.9348 C.ar    
  53 C53          -14.1318    13.2416    -7.6909 C.ar    
  54 C54          -15.3804    12.9027    -7.2017 C.ar    
  55 C55          -15.5013    12.3169    -5.9578 C.ar    
  56 C56           -6.7291    -3.4613     3.7117 C.3     
  57 C57           -7.5231    -4.4770     2.8878 C.3     
  58 C58           -5.2589    -3.8818     3.7603 C.3     
  59 H59            0.8361    -0.4980    -0.0484 H       
  60 H60           -0.7816    -0.4249     0.3991 H       
  61 H61           -3.4274     3.1838     0.4580 H       
  62 H62           -3.8965     2.4239    -1.0818 H       
  63 H63           -2.2491     1.1061     1.1242 H       
  64 H64           -2.7183     0.3463    -0.4155 H       
  65 H65           -1.3853     2.7694    -0.9886 H       
  66 H66            1.7688     1.2832    -1.2053 H       
  67 H67           -4.7603     0.7606     1.0310 H       
  68 H68           -9.2263     1.9838     1.7878 H       
  69 H69           -7.4229     5.2291    -0.3632 H       
  70 H70           -5.2881     4.0204    -0.4098 H       
  71 H71           -9.0458     6.0621    -0.1890 H       
  72 H72          -10.2478     8.2382     0.3653 H       
  73 H73          -12.1806     4.4647    -0.1898 H       
  74 H74          -14.3601     5.5996    -0.3174 H       
  75 H75          -12.4278     9.3729     0.2438 H       
  76 H76          -15.8034     9.9361     0.4570 H       
  77 H77          -14.0360    10.0101     0.6552 H       
  78 H78          -16.7218     8.0238    -0.8620 H       
  79 H79          -15.7586     6.5275    -0.8998 H       
  80 H80           -7.9263     1.0188     3.7658 H       
  81 H81           -7.7399    -1.2070     4.7971 H       
  82 H82           -5.9642    -2.7295     1.2296 H       
  83 H83           -6.1493    -0.5122     0.1798 H       
  84 H84          -17.7727     8.7742     1.1893 H       
  85 H85          -18.7100     8.1268     3.3698 H       
  86 H86          -16.3916     4.5249     3.2788 H       
  87 H87          -15.4686     5.1853     1.0960 H       
  88 H88          -16.8253    10.2653    -1.7162 H       
  89 H89          -16.6286    11.2984    -3.9403 H       
  90 H90          -12.3745    11.4770    -3.4630 H       
  91 H91          -12.5902    10.4483    -1.2386 H       
  92 H92          -17.0770     4.0433     4.8814 H       
  93 H93          -18.0136     3.3964     7.0624 H       
  94 H94          -19.6326     4.8628     8.1942 H       
  95 H95          -20.3229     6.9820     7.1525 H       
  96 H96          -19.3906     7.6482     4.9754 H       
  97 H97          -12.2231    12.2369    -5.0969 H       
  98 H98          -12.0262    13.2690    -7.3215 H       
  99 H99          -14.0414    13.6954    -8.6668 H       
 100 H100         -16.2619    13.0923    -7.7961 H       
 101 H101         -16.4766    12.0523    -5.5768 H       
 102 H102          -7.1296    -3.4227     4.7247 H       
 103 H103          -7.4418    -5.4616     3.3484 H       
 104 H104          -8.5706    -4.1775     2.8532 H       
 105 H105          -7.1226    -4.5157     1.8748 H       
 106 H106          -4.6932    -3.1583     4.3473 H       
 107 H107          -5.1776    -4.8664     4.2209 H       
 108 H108          -4.8584    -3.9205     2.7473 H       
@<TRIPOS>BOND
   1    1    2 1
   2    1    6 2
   3    1    5 1
   4    2   59 1
   5    2   60 1
   6    3    4 1
   7    3    7 1
   8    3   61 1
   9    3   62 1
  10    4    5 1
  11    4   63 1
  12    4   64 1
  13    5   65 1
  14    6   66 1
  15    7    8 1
  16    7   67 1
  17    8    9 ar
  18    8   13 ar
  19    9   10 ar
  20    9   26 1
  21   10   11 ar
  22   10   68 1
  23   11   12 ar
  24   11   14 1
  25   12   13 ar
  26   12   69 1
  27   13   70 1
  28   14   15 am
  29   14   16 2
  30   15   17 1
  31   15   71 1
  32   17   18 ar
  33   17   19 ar
  34   18   22 ar
  35   18   72 1
  36   19   20 ar
  37   19   73 1
  38   20   21 ar
  39   20   74 1
  40   21   22 ar
  41   21   23 1
  42   22   75 1
  43   23   24 1
  44   23   25 1
  45   24   33 1
  46   24   76 1
  47   24   77 1
  48   25   32 1
  49   25   78 1
  50   25   79 1
  51   26   27 ar
  52   26   31 ar
  53   27   28 ar
  54   27   80 1
  55   28   29 ar
  56   28   81 1
  57   29   30 ar
  58   29   56 1
  59   30   31 ar
  60   30   82 1
  61   31   83 1
  62   32   34 ar
  63   32   38 ar
  64   33   39 ar
  65   33   43 ar
  66   34   35 ar
  67   34   84 1
  68   35   36 ar
  69   35   85 1
  70   36   37 ar
  71   36   44 1
  72   37   38 ar
  73   37   86 1
  74   38   87 1
  75   39   40 ar
  76   39   88 1
  77   40   41 ar
  78   40   89 1
  79   41   42 ar
  80   41   45 1
  81   42   43 ar
  82   42   90 1
  83   43   91 1
  84   44   46 ar
  85   44   50 ar
  86   45   51 ar
  87   45   55 ar
  88   46   47 ar
  89   46   92 1
  90   47   48 ar
  91   47   93 1
  92   48   49 ar
  93   48   94 1
  94   49   50 ar
  95   49   95 1
  96   50   96 1
  97   51   52 ar
  98   51   97 1
  99   52   53 ar
 100   52   98 1
 101   53   54 ar
 102   53   99 1
 103   54   55 ar
 104   54  100 1
 105   55  101 1
 106   56   57 1
 107   56   58 1
 108   56  102 1
 109   57  103 1
 110   57  104 1
 111   57  105 1
 112   58  106 1
 113   58  107 1
 114   58  108 1

#	End of record

