#	Name: ASD03240701
#	Creating user name:	WinNT
#	Creation time:	15. 06. 2019 20:35

#	Modifying user name:	WinNT
#	Modification time:	15. 06. 2019 20:35

#	Program:	/corina/corina34_cracker 3.40 0067  02.08.2006

@<TRIPOS>MOLECULE
ASD03240701
  75   82    0    0    0
SMALL
NO_CHARGES


@<TRIPOS>ATOM
   1 C1            -0.0138     1.4567     0.1165 C.3     
   2 N2             0.0021    -0.0041     0.0020 N.am    
   3 C3             1.2784    -0.4127    -0.1109 C.2     
   4 C4             2.1910     0.7465    -0.0783 C.ar    
   5 C5             3.5808     0.8513    -0.1587 C.ar    
   6 C6             4.1801     2.0922    -0.0998 C.ar    
   7 C7             3.4101     3.2338     0.0386 C.ar    
   8 C8             2.0312     3.1380     0.1189 C.ar    
   9 C9             1.4227     1.9053     0.0609 C.ar    
  10 N10           -2.8231     2.0573     0.3392 N.3     
  11 C11           -2.2644     1.6238    -0.9477 C.3     
  12 C12           -0.8016     2.0651    -1.0442 C.3     
  13 C13           -0.6454     1.8721     1.4455 C.3     
  14 C14           -2.1131     1.4369     1.4648 C.3     
  15 O15            1.6299    -1.5708    -0.2233 O.2     
  16 C16           -4.2639     1.7791     0.4079 C.3     
  17 C17           -4.7527     2.0058     1.8154 C.ar    
  18 C18           -5.2101     3.2557     2.1929 C.ar    
  19 C19           -5.6593     3.4694     3.4798 C.ar    
  20 C20           -5.6515     2.4220     4.4011 C.ar    
  21 C21           -5.1891     1.1640     4.0143 C.ar    
  22 C22           -4.7474     0.9616     2.7229 C.ar    
  23 C23           -6.5288     5.5075     9.4815 C.2     
  24 N24           -7.1849     4.5697    10.1876 N.2     
  25 C25           -7.4453     3.3862     9.6952 C.2     
  26 C26           -7.0116     3.0716     8.3356 C.ar    
  27 C27           -6.3231     4.0599     7.5999 C.ar    
  28 N28           -6.0933     5.2811     8.2040 N.pl3   
  29 C29           -7.2609     1.8243     7.7540 C.ar    
  30 C30           -6.8117     1.6098     6.4548 C.ar    
  31 C31           -6.1318     2.6447     5.7841 C.ar    
  32 N32           -5.9143     3.8139     6.3676 N.ar    
  33 N33           -5.4546     6.4438     7.7560 N.2     
  34 C34           -5.4946     7.3424     8.7103 C.2     
  35 C35           -6.1507     6.8025     9.8093 C.2     
  36 C36           -7.0456     0.3080     5.7850 C.ar    
  37 C37           -6.7143    -0.8813     6.4323 C.ar    
  38 C38           -6.9347    -2.0902     5.8041 C.ar    
  39 C39           -7.4829    -2.1232     4.5345 C.ar    
  40 C40           -7.8132    -0.9461     3.8872 C.ar    
  41 C41           -7.6031     0.2683     4.5080 C.ar    
  42 C42           -4.9179     8.7323     8.6297 C.3     
  43 C43           -1.1762    -0.8746     0.0098 C.3     
  44 H44            4.1854    -0.0372    -0.2664 H       
  45 H45            5.2553     2.1734    -0.1617 H       
  46 H46            3.8862     4.2021     0.0846 H       
  47 H47            1.4332     4.0309     0.2270 H       
  48 H48           -2.3217     0.5378    -1.0212 H       
  49 H49           -2.8339     2.0734    -1.7610 H       
  50 H50           -0.7453     3.1524    -0.9920 H       
  51 H51           -0.3798     1.7231    -1.9893 H       
  52 H52           -0.1129     1.3930     2.2671 H       
  53 H53           -0.5854     2.9550     1.5544 H       
  54 H54           -2.5729     1.7511     2.4018 H       
  55 H55           -2.1715     0.3520     1.3775 H       
  56 H56           -4.7953     2.4443    -0.2727 H       
  57 H57           -4.4481     0.7436     0.1217 H       
  58 H58           -5.2152     4.0659     1.4788 H       
  59 H59           -6.0158     4.4456     3.7735 H       
  60 H60           -5.1803     0.3493     4.7232 H       
  61 H61           -4.3930    -0.0129     2.4212 H       
  62 H62           -7.9738     2.6519    10.2851 H       
  63 H63           -7.7850     1.0516     8.2967 H       
  64 H64           -6.3351     7.3012    10.7493 H       
  65 H65           -6.2856    -0.8568     7.4232 H       
  66 H66           -6.6784    -3.0123     6.3046 H       
  67 H67           -7.6533    -3.0715     4.0466 H       
  68 H68           -8.2406    -0.9779     2.8959 H       
  69 H69           -7.8656     1.1865     4.0035 H       
  70 H70           -5.6730     9.4173     8.2440 H       
  71 H71           -4.6082     9.0553     9.6237 H       
  72 H72           -4.0553     8.7298     7.9634 H       
  73 H73           -2.0757    -0.2676     0.1121 H       
  74 H74           -1.2202    -1.4348    -0.9242 H       
  75 H75           -1.1093    -1.5691     0.8472 H       
@<TRIPOS>BOND
   1    1    2 1
   2    1    9 1
   3    1   12 1
   4    1   13 1
   5    2    3 am
   6    2   43 1
   7    3    4 1
   8    3   15 2
   9    4    5 ar
  10    4    9 ar
  11    5    6 ar
  12    5   44 1
  13    6    7 ar
  14    6   45 1
  15    7    8 ar
  16    7   46 1
  17    8    9 ar
  18    8   47 1
  19   10   11 1
  20   10   14 1
  21   10   16 1
  22   11   12 1
  23   11   48 1
  24   11   49 1
  25   12   50 1
  26   12   51 1
  27   13   14 1
  28   13   52 1
  29   13   53 1
  30   14   54 1
  31   14   55 1
  32   16   17 1
  33   16   56 1
  34   16   57 1
  35   17   18 ar
  36   17   22 ar
  37   18   19 ar
  38   18   58 1
  39   19   20 ar
  40   19   59 1
  41   20   21 ar
  42   20   31 1
  43   21   22 ar
  44   21   60 1
  45   22   61 1
  46   23   24 1
  47   23   28 1
  48   23   35 2
  49   24   25 2
  50   25   26 1
  51   25   62 1
  52   26   27 ar
  53   26   29 ar
  54   27   28 1
  55   27   32 ar
  56   28   33 1
  57   29   30 ar
  58   29   63 1
  59   30   31 ar
  60   30   36 1
  61   31   32 ar
  62   33   34 2
  63   34   35 1
  64   34   42 1
  65   35   64 1
  66   36   37 ar
  67   36   41 ar
  68   37   38 ar
  69   37   65 1
  70   38   39 ar
  71   38   66 1
  72   39   40 ar
  73   39   67 1
  74   40   41 ar
  75   40   68 1
  76   41   69 1
  77   42   70 1
  78   42   71 1
  79   42   72 1
  80   43   73 1
  81   43   74 1
  82   43   75 1

#	End of record

