#	Name: ASD02160002
#	Creating user name:	WinNT
#	Creation time:	15. 06. 2019 20:18

#	Modifying user name:	WinNT
#	Modification time:	15. 06. 2019 20:18

#	Program:	/corina/corina34_cracker 3.40 0067  02.08.2006

@<TRIPOS>MOLECULE
ASD02160002
  55   58    0    0    0
SMALL
NO_CHARGES


@<TRIPOS>ATOM
   1 C1             0.3265     0.2006     0.7851 C.2     
   2 C2             0.1670    -1.2387     0.5027 C.ar    
   3 S3             2.1534    -1.7512     2.3478 S.3     
   4 C4            -1.9819    -3.4066    -1.7401 C.3     
   5 C5             0.9444    -2.1973     1.1535 C.ar    
   6 C6             1.5803     0.7505     1.3351 C.ar    
   7 C7             2.4709    -0.0485     2.0527 C.ar    
   8 C8            -0.7848    -1.6414    -0.4384 C.ar    
   9 C9            -0.9542    -2.9787    -0.7244 C.ar    
  10 N10           -4.4305     0.8105     0.9824 N.3     
  11 N11           -6.8538    -0.5782     1.5345 N.3     
  12 C12           -0.6944     1.0327     0.5298 C.2     
  13 C13            0.7598    -3.5463     0.8514 C.ar    
  14 C14           -0.1815    -3.9301    -0.0793 C.ar    
  15 F15           -1.4256    -3.3417    -3.0222 F       
  16 F16           -2.3839    -4.7195    -1.4721 F       
  17 F17           -3.0902    -2.5558    -1.6691 F       
  18 C18           -6.7830     0.8846     1.6564 C.3     
  19 C19           -5.3536     1.2951     2.0182 C.3     
  20 C20           -5.9307    -1.0628     0.4988 C.3     
  21 C21           -4.5014    -0.6523     0.8605 C.3     
  22 C22           -2.0868     0.4846     0.3517 C.3     
  23 C23           -3.0556     1.2501     1.2551 C.3     
  24 O24           -8.0023    -0.8084    -1.1351 O.3     
  25 C25            1.8747     2.1010     1.1268 C.ar    
  26 C26           -8.2287    -1.0178     1.2618 C.3     
  27 C27            3.6448     0.5155     2.5519 C.ar    
  28 C28           -8.7406    -0.3338    -0.0074 C.3     
  29 C29            3.0393     2.6417     1.6268 C.ar    
  30 C30            3.9235     1.8484     2.3392 C.ar    
  31 H31           -1.3896    -0.9023    -0.9426 H       
  32 H32           -0.5183     2.0954     0.4518 H       
  33 H33            1.3583    -4.2947     1.3494 H       
  34 H34           -0.3171    -4.9772    -0.3066 H       
  35 H35           -7.0638     1.3426     0.7080 H       
  36 H36           -7.4658     1.2179     2.4379 H       
  37 H37           -5.0824     0.8593     2.9797 H       
  38 H38           -5.2921     2.3816     2.0807 H       
  39 H39           -5.9923    -2.1492     0.4363 H       
  40 H40           -6.2019    -0.6269    -0.4628 H       
  41 H41           -3.8185    -0.9856     0.0790 H       
  42 H42           -4.2205    -1.1102     1.8089 H       
  43 H43           -2.3922     0.5993    -0.6884 H       
  44 H44           -2.0983    -0.5720     0.6193 H       
  45 H45           -2.9698     2.3185     1.0571 H       
  46 H46           -2.8115     1.0532     2.2990 H       
  47 H47           -8.2740    -0.4164    -1.9763 H       
  48 H48            1.1874     2.7225     0.5720 H       
  49 H49           -8.2437    -2.0989     1.1233 H       
  50 H50           -8.8691    -0.7503     2.1023 H       
  51 H51            4.3394    -0.0959     3.1088 H       
  52 H52           -8.6113     0.7447     0.0837 H       
  53 H53           -9.7976    -0.5629    -0.1425 H       
  54 H54            3.2630     3.6855     1.4631 H       
  55 H55            4.8350     2.2761     2.7297 H       
@<TRIPOS>BOND
   1    1    2 1
   2    1    6 1
   3    1   12 2
   4    2    5 ar
   5    2    8 ar
   6    3    7 1
   7    3    5 1
   8    4    9 1
   9    4   15 1
  10    4   16 1
  11    4   17 1
  12    5   13 ar
  13    6    7 ar
  14    6   25 ar
  15    7   27 ar
  16    8    9 ar
  17    8   31 1
  18    9   14 ar
  19   10   23 1
  20   10   19 1
  21   10   21 1
  22   11   20 1
  23   11   18 1
  24   11   26 1
  25   12   22 1
  26   12   32 1
  27   13   14 ar
  28   13   33 1
  29   14   34 1
  30   18   19 1
  31   18   35 1
  32   18   36 1
  33   19   37 1
  34   19   38 1
  35   20   21 1
  36   20   39 1
  37   20   40 1
  38   21   41 1
  39   21   42 1
  40   22   23 1
  41   22   43 1
  42   22   44 1
  43   23   45 1
  44   23   46 1
  45   24   28 1
  46   24   47 1
  47   25   29 ar
  48   25   48 1
  49   26   28 1
  50   26   49 1
  51   26   50 1
  52   27   30 ar
  53   27   51 1
  54   28   52 1
  55   28   53 1
  56   29   30 ar
  57   29   54 1
  58   30   55 1

#	End of record

