#	Name: ASD09800031
#	Creating user name:	WinNT
#	Creation time:	15. 06. 2019 21:24

#	Modifying user name:	WinNT
#	Modification time:	15. 06. 2019 21:24

#	Program:	/corina/corina34_cracker 3.40 0067  02.08.2006

@<TRIPOS>MOLECULE
ASD09800031
  62   67    0    0    0
SMALL
NO_CHARGES


@<TRIPOS>ATOM
   1 C1            -0.8479     2.5303     3.2719 C.2     
   2 N2            -1.1627     1.6509     4.2055 N.2     
   3 C3            -2.1098     0.7266     3.9994 C.2     
   4 C4            -2.7810     0.6519     2.8357 C.2     
   5 C5            -1.5248     2.5006     2.0359 C.2     
   6 C6            -1.4554     3.2486     0.8656 C.2     
   7 N7            -2.4976     1.5415     1.8236 N.pl3   
   8 C8            -2.9803     1.7318     0.5826 C.2     
   9 N9            -2.3663     2.7406     0.0190 N.2     
  10 C10           -0.5516     4.3870     0.6033 C.ar    
  11 C11           -0.1996     6.7251    -0.0208 C.ar    
  12 C12            1.1923     6.5296     0.1113 C.ar    
  13 C13            1.6803     5.2918     0.4751 C.ar    
  14 C14            0.8208     4.2295     0.7189 C.ar    
  15 C15           -1.0813     5.6462     0.2261 C.ar    
  16 C16           -2.4632     5.8415     0.0930 C.ar    
  17 C17           -2.9400     7.0647    -0.2716 C.ar    
  18 C18           -2.0730     8.1272    -0.5149 C.ar    
  19 C19           -0.7252     7.9721    -0.3953 C.ar    
  20 N20            2.0732     7.5859    -0.1296 N.am    
  21 C21            3.3524     7.3323    -0.4700 C.2     
  22 N22            4.2310     8.3470    -0.5924 N.am    
  23 O23            3.7138     6.1881    -0.6667 O.2     
  24 C24            5.5290     8.0970    -1.0516 C.ar    
  25 C25            7.0364     6.8591    -2.4462 C.ar    
  26 C26            5.7540     7.1031    -1.9946 C.ar    
  27 C27            6.5942     8.8465    -0.5692 C.ar    
  28 C28            7.8739     8.5976    -1.0247 C.ar    
  29 C29            8.0954     7.6034    -1.9602 C.ar    
  30 C30            9.0302     9.4106    -0.5022 C.3     
  31 F31            9.5638     8.7878     0.6311 F       
  32 F32           10.0167     9.5066    -1.4896 F       
  33 F33            8.5836    10.6924    -0.1632 F       
  34 N34            0.1350     3.4771     3.5073 N.pl3   
  35 C35           -4.0624     0.9051    -0.0630 C.3     
  36 C36           -4.4156     1.3514    -1.4944 C.3     
  37 C37           -3.5484    -0.3923    -0.7151 C.3     
  38 O38           -4.4245    -0.0555    -1.8096 O.3     
  39 C39           -5.2810     0.7051     0.8402 C.3     
  40 H40           -2.3402     0.0238     4.7864 H       
  41 H41           -3.5396    -0.1039     2.6957 H       
  42 H42            2.7461     5.1480     0.5743 H       
  43 H43            1.2259     3.2693     1.0023 H       
  44 H44           -3.1466     5.0261     0.2783 H       
  45 H45           -4.0049     7.2123    -0.3738 H       
  46 H46           -2.4750     9.0874    -0.8027 H       
  47 H47           -0.0641     8.8044    -0.5865 H       
  48 H48            1.7645     8.5022    -0.0520 H       
  49 H49            3.9636     9.2505    -0.3623 H       
  50 H50            7.2121     6.0859    -3.1795 H       
  51 H51            4.9273     6.5211    -2.3744 H       
  52 H52            6.4218     9.6233     0.1610 H       
  53 H53            9.0971     7.4107    -2.3148 H       
  54 H54            0.6019     3.4904     4.3574 H       
  55 H55            0.3565     4.1269     2.8221 H       
  56 H56           -5.3919     1.8285    -1.5793 H       
  57 H57           -3.6218     1.9096    -1.9908 H       
  58 H58           -2.4898    -0.3666    -0.9736 H       
  59 H59           -3.8370    -1.2981    -0.1820 H       
  60 H60           -5.7106     1.6750     1.0909 H       
  61 H61           -6.0246     0.1022     0.3189 H       
  62 H62           -4.9761     0.1956     1.7542 H       
@<TRIPOS>BOND
   1    1    2 2
   2    1   34 1
   3    1    5 1
   4    2    3 1
   5    3    4 2
   6    3   40 1
   7    4    7 1
   8    4   41 1
   9    5    7 1
  10    5    6 2
  11    6    9 1
  12    6   10 1
  13    7    8 1
  14    8    9 2
  15    8   35 1
  16   10   15 ar
  17   10   14 ar
  18   11   12 ar
  19   11   15 ar
  20   11   19 ar
  21   12   13 ar
  22   12   20 1
  23   13   14 ar
  24   13   42 1
  25   14   43 1
  26   15   16 ar
  27   16   17 ar
  28   16   44 1
  29   17   18 ar
  30   17   45 1
  31   18   19 ar
  32   18   46 1
  33   19   47 1
  34   20   21 am
  35   20   48 1
  36   21   22 am
  37   21   23 2
  38   22   24 1
  39   22   49 1
  40   24   27 ar
  41   24   26 ar
  42   25   26 ar
  43   25   29 ar
  44   25   50 1
  45   26   51 1
  46   27   28 ar
  47   27   52 1
  48   28   29 ar
  49   28   30 1
  50   29   53 1
  51   30   31 1
  52   30   32 1
  53   30   33 1
  54   34   54 1
  55   34   55 1
  56   35   36 1
  57   35   37 1
  58   35   39 1
  59   36   38 1
  60   36   56 1
  61   36   57 1
  62   37   38 1
  63   37   58 1
  64   37   59 1
  65   39   60 1
  66   39   61 1
  67   39   62 1

#	End of record

