#	Name: ASD01208942
#	Creating user name:	WinNT
#	Creation time:	15. 06. 2019 19:10

#	Modifying user name:	WinNT
#	Modification time:	15. 06. 2019 19:10

#	Program:	/corina/corina34_cracker 3.40 0067  02.08.2006

@<TRIPOS>MOLECULE
ASD01208942
  50   53    0    0    0
SMALL
NO_CHARGES


@<TRIPOS>ATOM
   1 C1            -2.0905     1.6172    -0.9968 C.3     
   2 C2            -2.1122     0.0909    -1.1241 C.3     
   3 C3            -1.4175    -0.3116    -2.4286 C.3     
   4 C4            -2.1149     0.3793    -3.6033 C.3     
   5 C5            -2.7619     2.2337    -2.2268 C.3     
   6 C6            -1.3739    -0.5322     0.0624 C.3     
   7 C7            -1.5307    -2.0535     0.0187 C.3     
   8 C8            -0.7065    -2.6752     1.1166 C.2     
   9 N9             0.6325    -2.5222     1.1230 N.am    
  10 C10            1.4022    -3.1746     2.0798 C.2     
  11 N11           -2.9403    -2.4048     0.2076 N.pl3   
  12 S12            3.1041    -3.0704     2.2043 S.3     
  13 C13            3.0796    -4.1529     3.5940 C.2     
  14 C14            1.8097    -4.4893     3.8342 C.2     
  15 N15            0.9331    -3.9452     3.0099 N.2     
  16 C16           -3.5514    -2.5449     1.4104 C.2     
  17 C17           -4.8433    -2.8708     1.1661 C.2     
  18 C18           -4.9626    -2.9158    -0.2437 C.2     
  19 N19           -3.7786    -2.6195    -0.7419 N.2     
  20 C20           -6.1841    -3.2305    -1.0114 C.2     
  21 O21           -1.2483    -3.3132     1.9943 O.2     
  22 Cl22           4.4641    -4.6885     4.4939 Cl      
  23 O23           -2.0862     1.7945    -3.4070 O.3     
  24 O24           -7.2202    -3.4842    -0.4282 O.2     
  25 N25           -6.1503    -3.2363    -2.3588 N.am    
  26 C26           -7.3622    -3.5485    -3.1205 C.3     
  27 C27           -7.4631    -2.9977    -4.5443 C.3     
  28 C28           -7.2211    -4.4913    -4.3173 C.3     
  29 Cl29          -6.0904    -3.1710     2.3359 Cl      
  30 H30           -2.6313     1.9156    -0.0987 H       
  31 H31           -1.0586     1.9628    -0.9335 H       
  32 H32           -3.1443    -0.2592    -1.1376 H       
  33 H33           -0.3720    -0.0050    -2.3941 H       
  34 H34           -1.4770    -1.3927    -2.5544 H       
  35 H35           -1.5982     0.1304    -4.5302 H       
  36 H36           -3.1495     0.0413    -3.6616 H       
  37 H37           -3.8050     1.9199    -2.2671 H       
  38 H38           -2.7113     3.3206    -2.1621 H       
  39 H39           -0.3163    -0.2742     0.0082 H       
  40 H40           -1.7939    -0.1502     0.9929 H       
  41 H41           -1.1896    -2.4263    -0.9472 H       
  42 H42            1.0593    -1.9570     0.4603 H       
  43 H43            1.5227    -5.1494     4.6394 H       
  44 H44           -3.0938    -2.4205     2.3807 H       
  45 H45           -5.3237    -3.0339    -2.8241 H       
  46 H46           -8.2813    -3.6086    -2.5377 H       
  47 H47           -8.4488    -2.6957    -4.8984 H       
  48 H48           -6.6279    -2.4030    -4.9143 H       
  49 H49           -6.2266    -4.8792    -4.5379 H       
  50 H50           -8.0475    -5.1719    -4.5220 H       
@<TRIPOS>BOND
   1    1    2 1
   2    1    5 1
   3    1   30 1
   4    1   31 1
   5    2    3 1
   6    2    6 1
   7    2   32 1
   8    3    4 1
   9    3   33 1
  10    3   34 1
  11    4   23 1
  12    4   35 1
  13    4   36 1
  14    5   23 1
  15    5   37 1
  16    5   38 1
  17    6    7 1
  18    6   39 1
  19    6   40 1
  20    7    8 1
  21    7   11 1
  22    7   41 1
  23    8    9 am
  24    8   21 2
  25    9   10 1
  26    9   42 1
  27   10   12 1
  28   10   15 2
  29   11   16 1
  30   11   19 1
  31   12   13 1
  32   13   14 2
  33   13   22 1
  34   14   15 1
  35   14   43 1
  36   16   17 2
  37   16   44 1
  38   17   18 1
  39   17   29 1
  40   18   19 2
  41   18   20 1
  42   20   24 2
  43   20   25 am
  44   25   26 1
  45   25   45 1
  46   26   27 1
  47   26   28 1
  48   26   46 1
  49   27   28 1
  50   27   47 1
  51   27   48 1
  52   28   49 1
  53   28   50 1

#	End of record

