#	Name: ASD00840489
#	Creating user name:	WinNT
#	Creation time:	15. 06. 2019 18:39

#	Modifying user name:	WinNT
#	Modification time:	15. 06. 2019 18:39

#	Program:	/corina/corina34_cracker 3.40 0067  02.08.2006

@<TRIPOS>MOLECULE
ASD00840489
  83   88    0    0    0
SMALL
NO_CHARGES


@<TRIPOS>ATOM
   1 F1            -0.1163    -3.1664     4.7128 F       
   2 N2            -0.0051     1.3211     0.0355 N.ar    
   3 C3             0.0089    -0.0012     0.0185 C.ar    
   4 C4             1.2116    -0.6961    -0.0015 C.ar    
   5 C5             2.3994     0.0138    -0.0035 C.ar    
   6 C6             2.3418     1.4008     0.0147 C.ar    
   7 C7             1.1108     2.0254     0.0341 C.ar    
   8 C8             1.2227    -2.2030    -0.0203 C.3     
   9 C9             0.4753    -2.7238    -1.2294 C.2     
  10 N10            2.5990    -2.7050    -0.0123 N.am    
  11 C11            3.4466    -2.3635    -1.0029 C.2     
  12 N12            4.7401    -2.7371    -0.9417 N.am    
  13 O13            3.0444    -1.7184    -1.9518 O.2     
  14 C14            5.2677    -3.4158     0.2497 C.3     
  15 C15            6.4985    -2.6518     0.7480 C.3     
  16 C16            7.5064    -2.5150    -0.3954 C.3     
  17 C17            6.8758    -1.7203    -1.5413 C.3     
  18 C18            5.6479    -2.4788    -2.0677 C.3     
  19 N19            8.7022    -1.8118     0.0878 N.3     
  20 C20            9.7416    -1.7658    -0.9501 C.3     
  21 C21           10.9362    -0.9586    -0.4366 C.3     
  22 N22           11.4506    -1.5780     0.7928 N.3     
  23 C23           10.4112    -1.6239     1.8307 C.3     
  24 C24            9.2166    -2.4312     1.3172 C.3     
  25 H25           11.8174    -2.4995     0.6073 H       
  26 O26            0.7560    -2.5216    -2.3919 O.2     
  27 N27           -0.5572    -3.4524    -0.7729 N.am    
  28 C28            0.4486    -2.7529     1.1557 C.ar    
  29 C29           -0.6015    -3.4896     0.6224 C.ar    
  30 C30            0.6137    -2.6426     2.5182 C.ar    
  31 C31           -0.2748    -3.2716     3.3753 C.ar    
  32 C32           -1.3271    -4.0100     2.8552 C.ar    
  33 C33           -1.4923    -4.1203     1.4879 C.ar    
  34 F34           -2.1945    -4.6241     3.6891 F       
  35 C35           -1.0282    -5.8355    -2.0665 C.ar    
  36 C36           -1.3615    -6.8795    -1.2235 C.ar    
  37 C37           -0.2110    -6.0599    -3.1591 C.ar    
  38 C38            0.2744    -7.3285    -3.4110 C.ar    
  39 C39           -0.0586    -8.3777    -2.5666 C.ar    
  40 C40           -0.8783    -8.1498    -1.4708 C.ar    
  41 O41            0.4174    -9.6267    -2.8125 O.3     
  42 H42           -1.9999    -6.7016    -0.3707 H       
  43 C43            0.0335   -10.6583    -1.9013 C.3     
  44 S44           -1.6516    -4.2177    -1.7521 S.o2    
  45 O45           -2.8324    -4.3859    -0.9796 O.2     
  46 O46           -1.6275    -3.5298    -2.9953 O.2     
  47 O47           -1.1626    -0.6857     0.0211 O.3     
  48 C48           -3.5735    -0.8519     0.0423 C.3     
  49 C49           -2.3649     0.0863     0.0426 C.3     
  50 H50            3.3496    -0.4994    -0.0185 H       
  51 H51            3.2502     1.9848     0.0141 H       
  52 H52            1.0605     3.1041     0.0480 H       
  53 H53            2.9002    -3.2831     0.7060 H       
  54 H54            4.5061    -3.4301     1.0294 H       
  55 H55            5.5504    -4.4369    -0.0065 H       
  56 H56            6.1982    -1.6610     1.0889 H       
  57 H57            6.9561    -3.1977     1.5730 H       
  58 H58            7.7875    -3.5058    -0.7523 H       
  59 H59            6.5720    -0.7382    -1.1788 H       
  60 H60            7.6020    -1.6031    -2.3456 H       
  61 H61            5.9643    -3.4221    -2.5128 H       
  62 H62            5.1371    -1.8726    -2.8158 H       
  63 H63           10.0631    -2.7798    -1.1879 H       
  64 H64            9.3403    -1.2917    -1.8458 H       
  65 H65           11.7202    -0.9476    -1.1938 H       
  66 H66           10.6206     0.0630    -0.2245 H       
  67 H67           10.8125    -2.0980     2.7264 H       
  68 H68           10.0897    -0.6099     2.0685 H       
  69 H69            8.4327    -2.4422     2.0744 H       
  70 H70            9.5322    -3.4527     1.1051 H       
  71 H71            1.4351    -2.0667     2.9184 H       
  72 H72           -2.3142    -4.6966     1.0893 H       
  73 H73            0.0476    -5.2429    -3.8163 H       
  74 H74            0.9124    -7.5034    -4.2647 H       
  75 H75           -1.1392    -8.9650    -0.8122 H       
  76 H76            0.3794   -10.4051    -0.8991 H       
  77 H77           -1.0523   -10.7541    -1.8975 H       
  78 H78            0.4804   -11.6026    -2.2122 H       
  79 H79           -3.5540    -1.4692    -0.8558 H       
  80 H80           -3.5368    -1.4919     0.9239 H       
  81 H81           -4.4906    -0.2631     0.0587 H       
  82 H82           -2.3844     0.7036     0.9407 H       
  83 H83           -2.4016     0.7263    -0.8390 H       
@<TRIPOS>BOND
   1    1   31 1
   2    2    3 ar
   3    2    7 ar
   4    3    4 ar
   5    3   47 1
   6    4    5 ar
   7    4    8 1
   8    5    6 ar
   9    5   50 1
  10    6    7 ar
  11    6   51 1
  12    7   52 1
  13    8    9 1
  14    8   10 1
  15    8   28 1
  16    9   26 2
  17    9   27 am
  18   10   11 am
  19   10   53 1
  20   11   12 am
  21   11   13 2
  22   12   14 1
  23   12   18 1
  24   14   15 1
  25   14   54 1
  26   14   55 1
  27   15   16 1
  28   15   56 1
  29   15   57 1
  30   16   17 1
  31   16   19 1
  32   16   58 1
  33   17   18 1
  34   17   59 1
  35   17   60 1
  36   18   61 1
  37   18   62 1
  38   19   20 1
  39   19   24 1
  40   20   21 1
  41   20   63 1
  42   20   64 1
  43   21   22 1
  44   21   65 1
  45   21   66 1
  46   22   23 1
  47   22   25 1
  48   23   24 1
  49   23   67 1
  50   23   68 1
  51   24   69 1
  52   24   70 1
  53   27   44 am
  54   27   29 1
  55   28   29 ar
  56   28   30 ar
  57   29   33 ar
  58   30   31 ar
  59   30   71 1
  60   31   32 ar
  61   32   33 ar
  62   32   34 1
  63   33   72 1
  64   35   36 ar
  65   35   37 ar
  66   35   44 1
  67   36   42 1
  68   36   40 ar
  69   37   38 ar
  70   37   73 1
  71   38   39 ar
  72   38   74 1
  73   39   40 ar
  74   39   41 1
  75   40   75 1
  76   41   43 1
  77   43   76 1
  78   43   77 1
  79   43   78 1
  80   44   45 2
  81   44   46 2
  82   47   49 1
  83   48   49 1
  84   48   79 1
  85   48   80 1
  86   48   81 1
  87   49   82 1
  88   49   83 1

#	End of record

