#	Name: ASD06140019
#	Creating user name:	WinNT
#	Creation time:	15. 06. 2019 21:05

#	Modifying user name:	WinNT
#	Modification time:	15. 06. 2019 21:05

#	Program:	/corina/corina34_cracker 3.40 0067  02.08.2006

@<TRIPOS>MOLECULE
ASD06140019
  44   46    0    0    0
SMALL
NO_CHARGES


@<TRIPOS>ATOM
   1 C1            -0.1524     1.2887    -0.5554 C.2     
   2 N2            -0.3725    -0.0083    -0.4639 N.2     
   3 S3             1.4158     2.1147    -0.6064 S.3     
   4 C4             0.6814    -0.8757    -0.3555 C.ar    
   5 C5             1.6707    -0.6593     0.6039 C.ar    
   6 C6             0.7676    -1.9872    -1.2037 C.ar    
   7 C7             1.8342    -2.8596    -1.0896 C.ar    
   8 C8             2.8163    -2.6369    -0.1388 C.ar    
   9 C9             2.7342    -1.5403     0.7084 C.ar    
  10 C10            0.7184     3.7399    -0.7270 C.2     
  11 C11           -0.6085     3.5666    -0.7216 C.2     
  12 N12           -1.0831     2.2850    -0.6372 N.pl3   
  13 C13           -1.5307     4.7195    -0.8094 C.ar    
  14 C14           -2.5050     4.9133     0.1710 C.ar    
  15 C15           -1.4261     5.6208    -1.8699 C.ar    
  16 C16           -2.2888     6.6943    -1.9469 C.ar    
  17 C17           -3.2580     6.8788    -0.9739 C.ar    
  18 C18           -3.3625     5.9902     0.0842 C.ar    
  19 F19           -4.1004     7.9319    -1.0542 F       
  20 C20           -2.5195     1.9972    -0.6245 C.3     
  21 C21           -3.0341     1.9063    -2.0625 C.3     
  22 Cl22           4.1520    -3.7373    -0.0015 Cl      
  23 O23            3.7024    -1.3281     1.6397 O.3     
  24 C24            3.5554    -0.1806     2.4785 C.3     
  25 O25           -0.1968    -2.2082    -2.1379 O.3     
  26 C26           -0.0438    -3.3612    -2.9682 C.3     
  27 H27            1.6077     0.1936     1.2635 H       
  28 H28            1.9015    -3.7168    -1.7431 H       
  29 H29            1.2534     4.6758    -0.7911 H       
  30 H30           -2.5875     4.2211     0.9959 H       
  31 H31           -0.6709     5.4781    -2.6286 H       
  32 H32           -2.2085     7.3925    -2.7670 H       
  33 H33           -4.1199     6.1383     0.8397 H       
  34 H34           -2.6957     1.0498    -0.1150 H       
  35 H35           -3.0453     2.7951    -0.1002 H       
  36 H36           -4.1028     1.6921    -2.0531 H       
  37 H37           -2.8578     2.8536    -2.5720 H       
  38 H38           -2.5082     1.1084    -2.5868 H       
  39 H39            3.5383     0.7192     1.8636 H       
  40 H40            2.6228    -0.2564     3.0377 H       
  41 H41            4.3929    -0.1294     3.1742 H       
  42 H42            0.8910    -3.2872    -3.5240 H       
  43 H43           -0.0272    -4.2566    -2.3469 H       
  44 H44           -0.8783    -3.4191    -3.6669 H       
@<TRIPOS>BOND
   1    1    2 2
   2    1    3 1
   3    1   12 1
   4    2    4 1
   5    3   10 1
   6    4    5 ar
   7    4    6 ar
   8    5    9 ar
   9    5   27 1
  10    6    7 ar
  11    6   25 1
  12    7    8 ar
  13    7   28 1
  14    8    9 ar
  15    8   22 1
  16    9   23 1
  17   10   11 2
  18   10   29 1
  19   11   12 1
  20   11   13 1
  21   12   20 1
  22   13   14 ar
  23   13   15 ar
  24   14   18 ar
  25   14   30 1
  26   15   16 ar
  27   15   31 1
  28   16   17 ar
  29   16   32 1
  30   17   18 ar
  31   17   19 1
  32   18   33 1
  33   20   21 1
  34   20   34 1
  35   20   35 1
  36   21   36 1
  37   21   37 1
  38   21   38 1
  39   23   24 1
  40   24   39 1
  41   24   40 1
  42   24   41 1
  43   25   26 1
  44   26   42 1
  45   26   43 1
  46   26   44 1

#	End of record

