#	Name: ASD00100167
#	Creating user name:	WinNT
#	Creation time:	15. 06. 2019 18:30

#	Modifying user name:	WinNT
#	Modification time:	15. 06. 2019 18:30

#	Program:	/corina/corina34_cracker 3.40 0067  02.08.2006

@<TRIPOS>MOLECULE
ASD00100167
  46   48    0    0    0
SMALL
NO_CHARGES


@<TRIPOS>ATOM
   1 C1            -0.6056    -0.4830    -0.5776 C.1     
   2 C2            -0.2418     0.9349    -0.4222 C.3     
   3 C3             1.2668     1.0987    -0.6179 C.3     
   4 N4            -0.8863    -1.5772    -0.6975 N.1     
   5 C5             1.6573     2.5272    -0.3384 C.ar    
   6 C6             1.9165     2.9343     0.9625 C.ar    
   7 C7             2.2758     4.2498     1.2165 C.ar    
   8 C8             2.3746     5.1512     0.1741 C.ar    
   9 C9             2.1154     4.7432    -1.1210 C.ar    
  10 C10            1.7631     3.4308    -1.3776 C.ar    
  11 O11            1.8182     2.0458     1.9861 O.3     
  12 C12            2.0994     2.5349     3.2990 C.3     
  13 N13           -0.9537     1.7341    -1.4224 N.2     
  14 C14           -1.8471     2.6037    -1.0455 C.2     
  15 C15           -2.2422     2.6895     0.3795 C.ar    
  16 C16           -2.2276     3.9194     1.0374 C.ar    
  17 C17           -2.5967     3.9928     2.3648 C.ar    
  18 C18           -2.9801     2.8497     3.0434 C.ar    
  19 C19           -2.9961     1.6269     2.3965 C.ar    
  20 C20           -2.6357     1.5417     1.0673 C.ar    
  21 C21           -2.4680     3.5069    -2.0419 C.ar    
  22 C22           -2.1111     3.4166    -3.3873 C.ar    
  23 C23           -2.6930     4.2607    -4.3106 C.ar    
  24 C24           -3.6284     5.1957    -3.9043 C.ar    
  25 C25           -3.9861     5.2905    -2.5712 C.ar    
  26 C26           -3.4162     4.4474    -1.6394 C.ar    
  27 H27           -0.5175     1.2733     0.5766 H       
  28 H28            1.7961     0.4366     0.0673 H       
  29 H29            1.5296     0.8445    -1.6447 H       
  30 H30            2.4777     4.5691     2.2283 H       
  31 H31            2.6543     6.1756     0.3714 H       
  32 H32            2.1925     5.4496    -1.9344 H       
  33 H33            1.5657     3.1134    -2.3909 H       
  34 H34            1.9844     1.7260     4.0205 H       
  35 H35            3.1216     2.9115     3.3353 H       
  36 H36            1.4066     3.3404     3.5428 H       
  37 H37           -1.9278     4.8122     0.5089 H       
  38 H38           -2.5859     4.9445     2.8753 H       
  39 H39           -3.2678     2.9122     4.0825 H       
  40 H40           -3.2961     0.7380     2.9316 H       
  41 H41           -2.6532     0.5873     0.5620 H       
  42 H42           -1.3806     2.6876    -3.7055 H       
  43 H43           -2.4175     4.1917    -5.3526 H       
  44 H44           -4.0808     5.8545    -4.6307 H       
  45 H45           -4.7166     6.0226    -2.2601 H       
  46 H46           -3.6999     4.5191    -0.5998 H       
@<TRIPOS>BOND
   1    1    2 1
   2    1    4 3
   3    2    3 1
   4    2   13 1
   5    2   27 1
   6    3    5 1
   7    3   28 1
   8    3   29 1
   9    5    6 ar
  10    5   10 ar
  11    6    7 ar
  12    6   11 1
  13    7    8 ar
  14    7   30 1
  15    8    9 ar
  16    8   31 1
  17    9   10 ar
  18    9   32 1
  19   10   33 1
  20   11   12 1
  21   12   34 1
  22   12   35 1
  23   12   36 1
  24   13   14 2
  25   14   15 1
  26   14   21 1
  27   15   16 ar
  28   15   20 ar
  29   16   17 ar
  30   16   37 1
  31   17   18 ar
  32   17   38 1
  33   18   19 ar
  34   18   39 1
  35   19   20 ar
  36   19   40 1
  37   20   41 1
  38   21   22 ar
  39   21   26 ar
  40   22   23 ar
  41   22   42 1
  42   23   24 ar
  43   23   43 1
  44   24   25 ar
  45   24   44 1
  46   25   26 ar
  47   25   45 1
  48   26   46 1

#	End of record

