#	Name: ASD01911862
#	Creating user name:	WinNT
#	Creation time:	15. 06. 2019 19:58

#	Modifying user name:	WinNT
#	Modification time:	15. 06. 2019 19:58

#	Program:	/corina/corina34_cracker 3.40 0067  02.08.2006

@<TRIPOS>MOLECULE
ASD01911862
  36   38    0    0    0
SMALL
NO_CHARGES


@<TRIPOS>ATOM
   1 C1            -1.0486    -0.4841    -2.0517 C.ar    
   2 C2            -1.0615     0.0599    -0.7714 C.ar    
   3 C3            -1.0257     1.4447    -0.6433 C.ar    
   4 N4            -0.9810     2.1896    -1.7355 N.ar    
   5 C5            -0.9701     1.6362    -2.9316 C.ar    
   6 N6            -1.0030     0.3288    -3.0943 N.ar    
   7 O7            -1.1084    -0.7407     0.3258 O.3     
   8 C8            -1.1451    -2.0853     0.1332 C.ar    
   9 C9             0.0139    -2.7703    -0.2049 C.ar    
  10 C10           -0.0221    -4.1387    -0.4007 C.ar    
  11 C11           -1.2124    -4.8284    -0.2602 C.ar    
  12 C12           -2.3746    -4.1473     0.0779 C.ar    
  13 C13           -2.3389    -2.7744     0.2799 C.ar    
  14 N14           -3.5785    -4.8446     0.2196 N.am    
  15 C15           -3.5732    -6.1122     0.6774 C.2     
  16 C16           -4.8324    -6.8851     0.7281 C.ar    
  17 O17           -2.5330    -6.6201     1.0486 O.2     
  18 C18           -6.0285    -6.3031     0.3020 C.ar    
  19 C19           -7.2057    -7.0234     0.3485 C.ar    
  20 C20           -7.2095    -8.3225     0.8155 C.ar    
  21 C21           -6.0200    -8.9175     1.2446 C.ar    
  22 C22           -4.8277    -8.1977     1.1956 C.ar    
  23 C23           -6.0254   -10.2652     1.7286 C.1     
  24 Cl24           1.4293    -4.9920    -0.8240 Cl      
  25 N25           -6.0297   -11.3343     2.1126 N.1     
  26 H26           -1.0708    -1.5547    -2.1924 H       
  27 H27           -1.0347     1.9050     0.3337 H       
  28 H28           -0.9336     2.2725    -3.8035 H       
  29 H29            0.9447    -2.2338    -0.3155 H       
  30 H30           -1.2383    -5.8971    -0.4139 H       
  31 H31           -3.2414    -2.2427     0.5429 H       
  32 H32           -4.4174    -4.4159    -0.0115 H       
  33 H33           -6.0326    -5.2871    -0.0645 H       
  34 H34           -8.1278    -6.5682     0.0185 H       
  35 H35           -8.1338    -8.8802     0.8496 H       
  36 H36           -3.9054    -8.6527     1.5256 H       
@<TRIPOS>BOND
   1    1    2 ar
   2    1    6 ar
   3    1   26 1
   4    2    3 ar
   5    2    7 1
   6    3    4 ar
   7    3   27 1
   8    4    5 ar
   9    5    6 ar
  10    5   28 1
  11    7    8 1
  12    8    9 ar
  13    8   13 ar
  14    9   10 ar
  15    9   29 1
  16   10   11 ar
  17   10   24 1
  18   11   12 ar
  19   11   30 1
  20   12   13 ar
  21   12   14 1
  22   13   31 1
  23   14   15 am
  24   14   32 1
  25   15   16 1
  26   15   17 2
  27   16   18 ar
  28   16   22 ar
  29   18   19 ar
  30   18   33 1
  31   19   20 ar
  32   19   34 1
  33   20   21 ar
  34   20   35 1
  35   21   22 ar
  36   21   23 1
  37   22   36 1
  38   23   25 3

#	End of record

