#	Name: ASD01940116
#	Creating user name:	WinNT
#	Creation time:	15. 06. 2019 20:11

#	Modifying user name:	WinNT
#	Modification time:	15. 06. 2019 20:11

#	Program:	/corina/corina34_cracker 3.40 0067  02.08.2006

@<TRIPOS>MOLECULE
ASD01940116
  28   28    0    0    0
SMALL
NO_CHARGES


@<TRIPOS>ATOM
   1 C1            -0.0187     1.5258     0.0104 C.3     
   2 C2             0.0021    -0.0041     0.0020 C.3     
   3 C3             1.3165     0.7789    -0.0063 C.3     
   4 S4            -0.5282     2.3649    -1.5150 S.o2    
   5 O5             0.4436     2.1790    -2.5349 O.2     
   6 O6            -1.9085     2.1428    -1.7690 O.2     
   7 O7            -0.4419     3.8471    -1.1800 O.3     
   8 C8            -0.4237     2.2196     1.3125 C.3     
   9 C9             0.8929     4.3549    -1.1299 C.3     
  10 C10            0.8589     5.8456    -0.7871 C.3     
  11 C11            2.2880     6.3893    -0.7334 C.3     
  12 C12            2.2540     7.8800    -0.3906 C.3     
  13 H13           -0.2728    -0.5162     0.9241 H       
  14 H14           -0.2904    -0.5063    -0.9201 H       
  15 H15            1.8888     0.7918    -0.9339 H       
  16 H16            1.9064     0.7818     0.9103 H       
  17 H17            0.2684     1.9366     2.1056 H       
  18 H18           -0.3940     3.3002     1.1728 H       
  19 H19           -1.4341     1.9164     1.5867 H       
  20 H20            1.4570     3.8193    -0.3664 H       
  21 H21            1.3712     4.2159    -2.0995 H       
  22 H22            0.2948     6.3813    -1.5506 H       
  23 H23            0.3806     5.9846     0.1825 H       
  24 H24            2.8521     5.8537     0.0301 H       
  25 H25            2.7663     6.2503    -1.7030 H       
  26 H26            1.6899     8.4157    -1.1541 H       
  27 H27            1.7757     8.0191     0.5790 H       
  28 H28            3.2721     8.2674    -0.3524 H       
@<TRIPOS>BOND
   1    1    2 1
   2    1    3 1
   3    1    4 1
   4    1    8 1
   5    2    3 1
   6    2   13 1
   7    2   14 1
   8    3   15 1
   9    3   16 1
  10    4    5 2
  11    4    6 2
  12    4    7 1
  13    7    9 1
  14    8   17 1
  15    8   18 1
  16    8   19 1
  17    9   10 1
  18    9   20 1
  19    9   21 1
  20   10   11 1
  21   10   22 1
  22   10   23 1
  23   11   12 1
  24   11   24 1
  25   11   25 1
  26   12   26 1
  27   12   27 1
  28   12   28 1

#	End of record

