#	Name: ASD02280001
#	Creating user name:	WinNT
#	Creation time:	15. 06. 2019 20:20

#	Modifying user name:	WinNT
#	Modification time:	15. 06. 2019 20:20

#	Program:	/corina/corina34_cracker 3.40 0067  02.08.2006

@<TRIPOS>MOLECULE
ASD02280001
  46   48    0    0    0
SMALL
NO_CHARGES


@<TRIPOS>ATOM
   1 P1             0.2086     1.4496     0.2767 P.3     
   2 P2            -0.5244     3.7721     1.9887 P.3     
   3 C3             0.8055    -0.8658    -0.9161 C.3     
   4 O4             0.1946    -0.1564     0.1635 O.3     
   5 C5             0.6081    -2.3696    -0.7146 C.3     
   6 O6            -0.7817    -2.6968    -0.8287 O.3     
   7 C7             1.3626    -3.1487    -1.8133 C.3     
   8 O8             2.5993    -3.6623    -1.3145 O.3     
   9 C9             0.3748    -4.3029    -2.1362 C.3     
  10 O10            0.5301    -5.3859    -1.2171 O.3     
  11 C11           -0.9862    -3.5902    -1.9348 C.3     
  12 N12           -5.7778    -3.0629    -1.0289 N.ar    
  13 O13            1.6048     1.9364     0.2141 O.2     
  14 O14            0.8718     4.2589     1.9260 O.2     
  15 C15           -4.7637    -2.4355    -0.4686 C.ar    
  16 O16           -0.6350     2.0808    -0.9407 O.3     
  17 O17           -1.3680     4.4033     0.7712 O.3     
  18 C18           -0.5403     1.9537     1.8605 C.3     
  19 N19           -3.5204    -2.8514    -0.6041 N.ar    
  20 O20           -1.1858     4.2173     3.3874 O.3     
  21 C21           -3.2383    -3.9358    -1.3223 C.ar    
  22 C22           -4.2832    -4.6292    -1.9332 C.ar    
  23 C23           -5.5832    -4.1562    -1.7644 C.ar    
  24 N24           -6.6571    -4.8132    -2.3532 N.pl3   
  25 N25           -3.7611    -5.7306    -2.6364 N.3     
  26 C26           -2.3126    -5.4481    -2.7715 C.3     
  27 N27           -2.0320    -4.5701    -1.6121 N.3     
  28 H28            0.3462    -0.5619    -1.8567 H       
  29 H29            1.8715    -0.6396    -0.9425 H       
  30 H30            0.9775    -2.6625     0.2682 H       
  31 H31            1.5300    -2.5210    -2.6885 H       
  32 H32            3.1104    -4.1598    -1.9674 H       
  33 H33            0.4919    -4.6439    -3.1649 H       
  34 H34            1.4072    -5.7929    -1.2333 H       
  35 H35           -1.2555    -3.0291    -2.8296 H       
  36 H36           -4.9576    -1.5515     0.1207 H       
  37 H37           -1.5614     1.8043    -0.9623 H       
  38 H38           -2.2944     4.1268     0.7497 H       
  39 H39           -1.5686     1.5951     1.9066 H       
  40 H40            0.0308     1.5264     2.6847 H       
  41 H41           -1.2109     5.1743     3.5237 H       
  42 H42           -7.5583    -4.4763    -2.2303 H       
  43 H43           -6.5053    -5.6087    -2.8871 H       
  44 H44           -3.9164    -6.5894    -2.1301 H       
  45 H45           -1.7330    -6.3689    -2.7065 H       
  46 H46           -2.1073    -4.9279    -3.7071 H       
@<TRIPOS>BOND
   1    1    4 1
   2    1   13 2
   3    1   16 1
   4    1   18 1
   5    2   14 2
   6    2   17 1
   7    2   18 1
   8    2   20 1
   9    3    4 1
  10    3    5 1
  11    3   28 1
  12    3   29 1
  13    5    6 1
  14    5    7 1
  15    5   30 1
  16    6   11 1
  17    7    8 1
  18    7    9 1
  19    7   31 1
  20    8   32 1
  21    9   10 1
  22    9   11 1
  23    9   33 1
  24   10   34 1
  25   11   27 1
  26   11   35 1
  27   12   15 ar
  28   12   23 ar
  29   15   19 ar
  30   15   36 1
  31   16   37 1
  32   17   38 1
  33   18   39 1
  34   18   40 1
  35   19   21 ar
  36   20   41 1
  37   21   22 ar
  38   21   27 1
  39   22   23 ar
  40   22   25 1
  41   23   24 1
  42   24   42 1
  43   24   43 1
  44   25   26 1
  45   25   44 1
  46   26   27 1
  47   26   45 1
  48   26   46 1

#	End of record

