#	Name: ASD01880079
#	Creating user name:	WinNT
#	Creation time:	15. 06. 2019 19:40

#	Modifying user name:	WinNT
#	Modification time:	15. 06. 2019 19:40

#	Program:	/corina/corina34_cracker 3.40 0067  02.08.2006

@<TRIPOS>MOLECULE
ASD01880079
  45   46    0    0    0
SMALL
NO_CHARGES


@<TRIPOS>ATOM
   1 C1             0.0094     1.3728     0.0369 C.ar    
   2 C2             0.0325    -0.0088     0.0322 C.ar    
   3 N3             1.1768    -0.6643     0.0123 N.ar    
   4 C4             2.3357    -0.0358    -0.0042 C.ar    
   5 C5             2.3911     1.3454    -0.0011 C.ar    
   6 C6             1.2088     2.0688     0.0200 C.ar    
   7 C7             3.7201     2.0558    -0.0196 C.3     
   8 N8             4.1295     2.2899    -1.4066 N.am    
   9 C9             3.6685     3.4174    -2.0899 C.ar    
  10 S10            5.1388     1.2176    -2.1642 S.o2    
  11 C11            4.0229     0.0135    -2.9358 C.3     
  12 O12            5.7957     1.9953    -3.1556 O.2     
  13 O13            5.8679     0.6140    -1.1044 O.2     
  14 C14            3.2827     4.5483    -1.3840 C.ar    
  15 C15            2.8257     5.6653    -2.0658 C.ar    
  16 C16            2.7551     5.6505    -3.4517 C.ar    
  17 C17            3.1397     4.5235    -4.1532 C.ar    
  18 C18            3.6010     3.4105    -3.4780 C.ar    
  19 O19            2.4467     6.7741    -1.3775 O.3     
  20 C20            2.0995     7.9277    -2.1461 C.3     
  21 C21            0.6326     7.8351    -2.5707 C.3     
  22 C22            2.3072     9.1855    -1.3002 C.3     
  23 C23            4.8397    -1.1525    -3.4964 C.3     
  24 F24            5.5453    -1.7694    -2.4578 F       
  25 F25            3.9792    -2.0812    -4.0915 F       
  26 F26            5.7416    -0.6731    -4.4524 F       
  27 H27           -0.9309     1.9040     0.0491 H       
  28 H28           -0.8972    -0.5582     0.0453 H       
  29 H29            3.2524    -0.6067    -0.0199 H       
  30 H30            1.2214     3.1487     0.0229 H       
  31 H31            3.6289     3.0105     0.4984 H       
  32 H32            4.4678     1.4407     0.4811 H       
  33 H33            3.3203    -0.3601    -2.1910 H       
  34 H34            3.4731     0.4941    -3.7450 H       
  35 H35            3.3379     4.5579    -0.3054 H       
  36 H36            2.3987     6.5208    -3.9827 H       
  37 H37            3.0834     4.5147    -5.2317 H       
  38 H38            3.9013     2.5312    -4.0286 H       
  39 H39            2.7319     7.9775    -3.0325 H       
  40 H40            0.3678     8.7150    -3.1570 H       
  41 H41            0.4846     6.9390    -3.1734 H       
  42 H42            0.0002     7.7853    -1.6843 H       
  43 H43            3.3523     9.2515    -0.9977 H       
  44 H44            2.0424    10.0655    -1.8865 H       
  45 H45            1.6748     9.1358    -0.4138 H       
@<TRIPOS>BOND
   1    1    2 ar
   2    1    6 ar
   3    1   27 1
   4    2    3 ar
   5    2   28 1
   6    3    4 ar
   7    4    5 ar
   8    4   29 1
   9    5    6 ar
  10    5    7 1
  11    6   30 1
  12    7    8 1
  13    7   31 1
  14    7   32 1
  15    8    9 1
  16    8   10 am
  17    9   14 ar
  18    9   18 ar
  19   10   11 1
  20   10   12 2
  21   10   13 2
  22   11   23 1
  23   11   33 1
  24   11   34 1
  25   14   15 ar
  26   14   35 1
  27   15   16 ar
  28   15   19 1
  29   16   17 ar
  30   16   36 1
  31   17   18 ar
  32   17   37 1
  33   18   38 1
  34   19   20 1
  35   20   21 1
  36   20   22 1
  37   20   39 1
  38   21   40 1
  39   21   41 1
  40   21   42 1
  41   22   43 1
  42   22   44 1
  43   22   45 1
  44   23   24 1
  45   23   25 1
  46   23   26 1

#	End of record

