#	Name: ASD01028164
#	Creating user name:	WinNT
#	Creation time:	15. 06. 2019 18:56

#	Modifying user name:	WinNT
#	Modification time:	15. 06. 2019 18:56

#	Program:	/corina/corina34_cracker 3.40 0067  02.08.2006

@<TRIPOS>MOLECULE
ASD01028164
  51   54    0    0    0
SMALL
NO_CHARGES


@<TRIPOS>ATOM
   1 C1            -0.1630     1.1171    -0.3754 C.ar    
   2 C2             0.1041    -0.2490    -0.1796 C.ar    
   3 C3             1.4296    -0.6557     0.0111 C.ar    
   4 C4             2.4216     0.3089    -0.0016 C.ar    
   5 C5             2.0804     1.6346    -0.2003 C.ar    
   6 N6             0.8252     1.9982    -0.3782 N.ar    
   7 C7            -0.9916    -1.2349    -0.1748 C.2     
   8 O8            -2.1472    -0.8600    -0.2303 O.2     
   9 N9            -0.7129    -2.5519    -0.1090 N.am    
  10 N10           -1.4640     1.5422    -0.5717 N.pl3   
  11 C11           -1.7622     2.9742    -0.6537 C.3     
  12 C12           -5.4551     3.4681    -0.0273 C.ar    
  13 C13           -4.1049     3.2917     0.2087 C.ar    
  14 C14           -3.2412     3.1678    -0.8688 C.ar    
  15 C15           -3.7704     3.2268    -2.1489 C.ar    
  16 C16           -5.1317     3.4058    -2.3073 C.ar    
  17 N17           -5.9235     3.5194    -1.2589 N.ar    
  18 N18           -2.7482    -6.9518    -0.9980 N.pl3   
  19 C19           -4.0275    -7.5626    -0.6276 C.3     
  20 C20           -4.7612    -6.4928     0.1975 C.3     
  21 C21           -3.8078    -5.3192     0.2313 C.ar    
  22 C22           -3.9234    -4.0760     0.8249 C.ar    
  23 C23           -2.9003    -3.1550     0.7153 C.ar    
  24 C24           -1.7514    -3.4816     0.0051 C.ar    
  25 C25           -1.6338    -4.7263    -0.5902 C.ar    
  26 C26           -2.6668    -5.6580    -0.4802 C.ar    
  27 C27           -6.0713    -6.0967    -0.4864 C.3     
  28 C28           -5.0303    -7.0030     1.6146 C.3     
  29 H29            1.6721    -1.6969     0.1648 H       
  30 H30            3.4546     0.0288     0.1429 H       
  31 H31            2.8562     2.3859    -0.2095 H       
  32 H32            0.2080    -2.8549    -0.1407 H       
  33 H33           -2.1792     0.8923    -0.6551 H       
  34 H34           -1.4632     3.4613     0.2744 H       
  35 H35           -1.2134     3.4125    -1.4872 H       
  36 H36           -6.1351     3.5609     0.8066 H       
  37 H37           -3.7272     3.2508     1.2197 H       
  38 H38           -3.1271     3.1343    -3.0114 H       
  39 H39           -5.5518     3.4528    -3.3011 H       
  40 H40           -2.0570    -7.3848    -1.5229 H       
  41 H41           -4.6010    -7.8103    -1.5209 H       
  42 H42           -3.8599    -8.4555    -0.0253 H       
  43 H43           -4.8173    -3.8240     1.3761 H       
  44 H44           -2.9929    -2.1843     1.1795 H       
  45 H45           -0.7396    -4.9768    -1.1417 H       
  46 H46           -6.7224    -6.9681    -0.5568 H       
  47 H47           -6.5655    -5.3201     0.0973 H       
  48 H48           -5.8594    -5.7198    -1.4869 H       
  49 H49           -4.0859    -7.2638     2.0923 H       
  50 H50           -5.5272    -6.2241     2.1929 H       
  51 H51           -5.6695    -7.8847     1.5680 H       
@<TRIPOS>BOND
   1    1    2 ar
   2    1    6 ar
   3    1   10 1
   4    2    3 ar
   5    2    7 1
   6    3    4 ar
   7    3   29 1
   8    4    5 ar
   9    4   30 1
  10    5    6 ar
  11    5   31 1
  12    7    8 2
  13    7    9 am
  14    9   24 1
  15    9   32 1
  16   10   11 1
  17   10   33 1
  18   11   14 1
  19   11   34 1
  20   11   35 1
  21   12   13 ar
  22   12   17 ar
  23   12   36 1
  24   13   14 ar
  25   13   37 1
  26   14   15 ar
  27   15   16 ar
  28   15   38 1
  29   16   17 ar
  30   16   39 1
  31   18   19 1
  32   18   26 1
  33   18   40 1
  34   19   20 1
  35   19   41 1
  36   19   42 1
  37   20   21 1
  38   20   27 1
  39   20   28 1
  40   21   22 ar
  41   21   26 ar
  42   22   23 ar
  43   22   43 1
  44   23   24 ar
  45   23   44 1
  46   24   25 ar
  47   25   26 ar
  48   25   45 1
  49   27   46 1
  50   27   47 1
  51   27   48 1
  52   28   49 1
  53   28   50 1
  54   28   51 1

#	End of record

