#	Name: ASD03320214
#	Creating user name:	WinNT
#	Creation time:	15. 06. 2019 20:36

#	Modifying user name:	WinNT
#	Modification time:	15. 06. 2019 20:36

#	Program:	/corina/corina34_cracker 3.40 0067  02.08.2006

@<TRIPOS>MOLECULE
ASD03320214
  37   39    0    0    0
SMALL
NO_CHARGES


@<TRIPOS>ATOM
   1 C1            -0.0070     1.3463    -0.1944 C.ar    
   2 C2             0.0222    -0.0350     0.0265 C.ar    
   3 C3            -1.1655    -0.7418     0.0353 C.ar    
   4 N4            -2.3179    -0.1354    -0.1604 N.ar    
   5 C5            -2.3958     1.1712    -0.3736 C.ar    
   6 C6            -1.2468     1.9577    -0.3924 C.ar    
   7 C7             1.2434     2.1401    -0.2117 C.2     
   8 O8             1.1994     3.3391    -0.4050 O.2     
   9 N9             2.4300     1.5326    -0.0129 N.am    
  10 C10            3.6185     2.2640    -0.1260 C.ar    
  11 C11           -3.7211     1.8024    -0.5882 C.ar    
  12 C12            3.6608     3.5892     0.2870 C.ar    
  13 C13            4.8333     4.3098     0.1751 C.ar    
  14 C14            5.9688     3.7105    -0.3502 C.ar    
  15 C15            5.9274     2.3867    -0.7631 C.ar    
  16 C16            4.7573     1.6629    -0.6461 C.ar    
  17 O17            7.1227     4.4210    -0.4609 O.3     
  18 C18            8.2531     3.7411    -1.0106 C.3     
  19 F19            7.9522     3.3085    -2.3065 F       
  20 F20            9.3467     4.6126    -1.0520 F       
  21 F21            8.5669     2.6366    -0.2113 F       
  22 C22           -4.8914     1.0392    -0.5689 C.ar    
  23 N23           -6.0516     1.6418    -0.7642 N.ar    
  24 C24           -6.1134     2.9418    -0.9746 C.ar    
  25 N25           -5.0339     3.6982    -1.0011 N.ar    
  26 C26           -3.8341     3.1774    -0.8094 C.ar    
  27 H27            0.9616    -0.5429     0.1877 H       
  28 H28           -1.1481    -1.8083     0.2050 H       
  29 H29           -1.3126     3.0216    -0.5660 H       
  30 H30            2.4605     0.5887     0.2085 H       
  31 H31            2.7767     4.0561     0.6954 H       
  32 H32            4.8663     5.3404     0.4963 H       
  33 H33            6.8118     1.9208    -1.1719 H       
  34 H34            4.7253     0.6323    -0.9672 H       
  35 H35           -4.8486    -0.0263    -0.3975 H       
  36 H36           -7.0782     3.4013    -1.1304 H       
  37 H37           -2.9544     3.8034    -0.8325 H       
@<TRIPOS>BOND
   1    1    2 ar
   2    1    7 1
   3    1    6 ar
   4    2    3 ar
   5    2   27 1
   6    3    4 ar
   7    3   28 1
   8    4    5 ar
   9    5    6 ar
  10    5   11 1
  11    6   29 1
  12    7    8 2
  13    7    9 am
  14    9   10 1
  15    9   30 1
  16   10   12 ar
  17   10   16 ar
  18   11   22 ar
  19   11   26 ar
  20   12   13 ar
  21   12   31 1
  22   13   14 ar
  23   13   32 1
  24   14   15 ar
  25   14   17 1
  26   15   16 ar
  27   15   33 1
  28   16   34 1
  29   17   18 1
  30   18   19 1
  31   18   20 1
  32   18   21 1
  33   22   23 ar
  34   22   35 1
  35   23   24 ar
  36   24   25 ar
  37   24   36 1
  38   25   26 ar
  39   26   37 1

#	End of record

