#	Name: ASD03092542
#	Creating user name:	WinNT
#	Creation time:	15. 06. 2019 20:32

#	Modifying user name:	WinNT
#	Modification time:	15. 06. 2019 20:32

#	Program:	/corina/corina34_cracker 3.40 0067  02.08.2006

@<TRIPOS>MOLECULE
ASD03092542
  37   39    0    0    0
SMALL
NO_CHARGES


@<TRIPOS>ATOM
   1 N1            -0.0162     1.3424     0.0094 N.pl3   
   2 C2             0.0021    -0.0041     0.0020 C.2     
   3 C3             1.3055    -0.4180    -0.0127 C.2     
   4 C4             2.1202     0.8019    -0.0139 C.2     
   5 C5             1.2570     1.8331    -0.0001 C.2     
   6 C6             1.7928    -1.8076    -0.0240 C.2     
   7 O7             1.0001    -2.7301    -0.0207 O.2     
   8 N8             3.1172    -2.0573    -0.0381 N.am    
   9 C9             3.6019    -3.4397    -0.0495 C.3     
  10 N10            9.2303    -3.4580     0.1689 N.pl3   
  11 C11            9.4121    -3.4647     1.5251 C.2     
  12 C12            8.2221    -3.4633     2.1463 C.2     
  13 C13            7.1942    -3.4550     1.1026 C.ar    
  14 C14            5.7980    -3.4510     1.1155 C.ar    
  15 C15            5.1088    -3.4436    -0.0641 C.ar    
  16 C16            5.7856    -3.4400    -1.2763 C.ar    
  17 C17            7.1626    -3.4443    -1.3121 C.ar    
  18 C18            7.8847    -3.4519    -0.1229 C.ar    
  19 C19           10.7500    -3.4730     2.2186 C.3     
  20 C20           -1.2297     2.1631     0.0198 C.3     
  21 H21           -0.8652    -0.6477     0.0072 H       
  22 H22            3.1985     0.8603    -0.0239 H       
  23 H23            1.5273     2.8787     0.0029 H       
  24 H24            3.7494    -1.3216    -0.0408 H       
  25 H25            3.2459    -3.9569     0.8416 H       
  26 H26            3.2286    -3.9484    -0.9383 H       
  27 H27            9.9432    -3.4539    -0.4888 H       
  28 H28            8.0543    -3.4676     3.2132 H       
  29 H29            5.2647    -3.4546     2.0547 H       
  30 H30            5.2269    -3.4342    -2.2005 H       
  31 H31            7.6800    -3.4419    -2.2601 H       
  32 H32           11.0764    -2.4474     2.3907 H       
  33 H33           10.6611    -3.9912     3.1734 H       
  34 H34           11.4803    -3.9866     1.5931 H       
  35 H35           -1.5256     2.3611     1.0500 H       
  36 H36           -1.0345     3.1066    -0.4899 H       
  37 H37           -2.0317     1.6322    -0.4930 H       
@<TRIPOS>BOND
   1    1    2 1
   2    1    5 1
   3    1   20 1
   4    2    3 2
   5    2   21 1
   6    3    4 1
   7    3    6 1
   8    4    5 2
   9    4   22 1
  10    5   23 1
  11    6    7 2
  12    6    8 am
  13    8    9 1
  14    8   24 1
  15    9   15 1
  16    9   25 1
  17    9   26 1
  18   10   11 1
  19   10   18 1
  20   10   27 1
  21   11   12 2
  22   11   19 1
  23   12   13 1
  24   12   28 1
  25   13   14 ar
  26   13   18 ar
  27   14   15 ar
  28   14   29 1
  29   15   16 ar
  30   16   17 ar
  31   16   30 1
  32   17   18 ar
  33   17   31 1
  34   19   32 1
  35   19   33 1
  36   19   34 1
  37   20   35 1
  38   20   36 1
  39   20   37 1

#	End of record

