#	Name: ASD04880486
#	Creating user name:	WinNT
#	Creation time:	15. 06. 2019 20:53

#	Modifying user name:	WinNT
#	Modification time:	15. 06. 2019 20:53

#	Program:	/corina/corina34_cracker 3.40 0067  02.08.2006

@<TRIPOS>MOLECULE
ASD04880486
  37   39    0    0    0
SMALL
NO_CHARGES


@<TRIPOS>ATOM
   1 C1            -0.0144     1.2117     0.0087 C.2     
   2 O2             0.0578    -0.0018    -0.0140 O.2     
   3 C3             1.2186     2.0260    -0.0194 C.ar    
   4 C4             2.4678     1.4097     0.0724 C.ar    
   5 C5             3.6163     2.1772     0.0455 C.ar    
   6 C6             3.5286     3.5554    -0.0717 C.ar    
   7 C7             2.2931     4.1702    -0.1623 C.ar    
   8 C8             1.1391     3.4141    -0.1434 C.ar    
   9 F9             4.8266     1.5834     0.1341 F       
  10 N10           -1.2191     1.8144     0.0539 N.am    
  11 N11           -1.4356     3.1835     0.1955 N.2     
  12 C12           -2.6789     3.5209     0.2115 C.2     
  13 C13           -3.5393     2.2860     0.0670 C.3     
  14 C14           -2.5205     1.1345    -0.0448 C.3     
  15 C15           -3.1849     4.8991     0.3503 C.ar    
  16 C16           -2.2907     5.9644     0.4776 C.ar    
  17 C17           -2.7727     7.2549     0.6070 C.ar    
  18 C18           -4.1428     7.4887     0.6104 C.ar    
  19 C19           -5.0299     6.4345     0.4843 C.ar    
  20 C20           -4.5600     5.1443     0.3490 C.ar    
  21 O21           -1.9059     8.2945     0.7312 O.3     
  22 C22           -0.5116     7.9816     0.7202 C.3     
  23 Cl23          -4.7431     9.1094     0.7740 Cl      
  24 H24            2.5362     0.3358     0.1644 H       
  25 H25            4.4288     4.1518    -0.0919 H       
  26 H26            2.2315     5.2446    -0.2531 H       
  27 H27            0.1755     3.8959    -0.2196 H       
  28 H28           -4.1729     2.1567     0.9444 H       
  29 H29           -4.1446     2.3455    -0.8375 H       
  30 H30           -2.6163     0.6270    -1.0046 H       
  31 H31           -2.6486     0.4302     0.7772 H       
  32 H32           -1.2263     5.7814     0.4755 H       
  33 H33           -6.0934     6.6225     0.4881 H       
  34 H34           -5.2551     4.3241     0.2467 H       
  35 H35            0.0675     8.8988     0.8268 H       
  36 H36           -0.2836     7.3096     1.5476 H       
  37 H37           -0.2553     7.4975    -0.2222 H       
@<TRIPOS>BOND
   1    1    2 2
   2    1    3 1
   3    1   10 am
   4    3    4 ar
   5    3    8 ar
   6    4    5 ar
   7    4   24 1
   8    5    6 ar
   9    5    9 1
  10    6    7 ar
  11    6   25 1
  12    7    8 ar
  13    7   26 1
  14    8   27 1
  15   10   11 1
  16   10   14 1
  17   11   12 2
  18   12   13 1
  19   12   15 1
  20   13   14 1
  21   13   28 1
  22   13   29 1
  23   14   30 1
  24   14   31 1
  25   15   16 ar
  26   15   20 ar
  27   16   17 ar
  28   16   32 1
  29   17   18 ar
  30   17   21 1
  31   18   19 ar
  32   18   23 1
  33   19   20 ar
  34   19   33 1
  35   20   34 1
  36   21   22 1
  37   22   35 1
  38   22   36 1
  39   22   37 1

#	End of record

