#	Name: ASD04490001
#	Creating user name:	WinNT
#	Creation time:	15. 06. 2019 20:49

#	Modifying user name:	WinNT
#	Modification time:	15. 06. 2019 20:49

#	Program:	/corina/corina34_cracker 3.40 0067  02.08.2006

@<TRIPOS>MOLECULE
ASD04490001
  29   30    0    0    0
SMALL
NO_CHARGES


@<TRIPOS>ATOM
   1 O1            -0.0161     1.3338     0.0094 O.3     
   2 C2             0.0021    -0.0041     0.0020 C.2     
   3 C3             1.2887    -0.4486    -0.0127 C.2     
   4 C4             2.1313     0.7650    -0.0142 C.ar    
   5 C5             1.2343     1.8425     0.0002 C.ar    
   6 C6             3.5041     0.9913    -0.0261 C.ar    
   7 C7             3.9834     2.2873    -0.0237 C.ar    
   8 C8             3.0930     3.3614    -0.0094 C.ar    
   9 C9             1.7286     3.1412     0.0031 C.ar    
  10 C10            1.7446    -1.8451    -0.0241 C.2     
  11 O11            1.9235    -2.4175    -1.0816 O.2     
  12 O12            1.9646    -2.4919     1.1382 O.3     
  13 C13           -1.2193    -0.8869     0.0094 C.3     
  14 O14            3.5712     4.6346    -0.0072 O.3     
  15 O15            5.3243     2.5162    -0.0348 O.3     
  16 C16            2.4139    -3.8699     1.0509 C.3     
  17 C17            2.6085    -4.4331     2.4601 C.3     
  18 H18            4.1916     0.1584    -0.0368 H       
  19 H19            1.0466     3.9785     0.0141 H       
  20 H20           -2.1157    -0.2668     0.0212 H       
  21 H21           -1.2214    -1.5117    -0.8838 H       
  22 H22           -1.2042    -1.5206     0.8961 H       
  23 H23            3.7011     5.0075    -0.8898 H       
  24 H24            5.7039     2.5870    -0.9214 H       
  25 H25            1.6672    -4.4627     0.5226 H       
  26 H26            3.3592    -3.9102     0.5098 H       
  27 H27            3.3551    -3.8402     2.9884 H       
  28 H28            1.6632    -4.3927     3.0013 H       
  29 H29            2.9458    -5.4675     2.3946 H       
@<TRIPOS>BOND
   1    1    2 1
   2    1    5 1
   3    2    3 2
   4    2   13 1
   5    3    4 1
   6    3   10 1
   7    4    5 ar
   8    4    6 ar
   9    5    9 ar
  10    6    7 ar
  11    6   18 1
  12    7    8 ar
  13    7   15 1
  14    8    9 ar
  15    8   14 1
  16    9   19 1
  17   10   11 2
  18   10   12 1
  19   12   16 1
  20   13   20 1
  21   13   21 1
  22   13   22 1
  23   14   23 1
  24   15   24 1
  25   16   17 1
  26   16   25 1
  27   16   26 1
  28   17   27 1
  29   17   28 1
  30   17   29 1

#	End of record

