#	Name: ASD01885770
#	Creating user name:	WinNT
#	Creation time:	15. 06. 2019 19:50

#	Modifying user name:	WinNT
#	Modification time:	15. 06. 2019 19:50

#	Program:	/corina/corina34_cracker 3.40 0067  02.08.2006

@<TRIPOS>MOLECULE
ASD01885770
  60   62    0    0    0
SMALL
NO_CHARGES


@<TRIPOS>ATOM
   1 C1            -0.0160     1.3294     0.0094 C.ar    
   2 C2            -1.2520     2.0240     0.0189 C.ar    
   3 C3            -2.4596     1.2809     0.0205 C.ar    
   4 C4            -2.3700    -0.1047     0.0125 C.ar    
   5 C5            -1.1108    -0.7138     0.0033 C.ar    
   6 N6             0.0021    -0.0041     0.0020 N.ar    
   7 C7             1.1364     3.4285     0.0097 C.ar    
   8 C8            -0.0805     4.1065     0.0258 C.ar    
   9 C9            -1.2606     3.4246     0.0271 C.ar    
  10 C10           -3.7749     1.9611     0.0308 C.2     
  11 C11           -1.0240    -2.1941    -0.0047 C.2     
  12 C12            2.4227     4.2136     0.0097 C.3     
  13 N13            2.8503     4.4530     1.3945 N.3     
  14 C14            1.1821     2.0685     0.0019 C.ar    
  15 N15            0.1806    -2.7985    -0.0130 N.am    
  16 O16           -2.0389    -2.8621    -0.0037 O.2     
  17 C17            4.2108     5.0039     1.4375 C.3     
  18 C18            4.5669     5.3756     2.8787 C.3     
  19 C19            4.4735     4.1273     3.7605 C.3     
  20 C20            3.0606     3.5456     3.6601 C.3     
  21 C21            2.7483     3.2269     2.1962 C.3     
  22 C22           -4.1737     2.9926     0.9058 C.2     
  23 N23           -5.3982     3.3304     0.6020 N.2     
  24 N24           -5.8277     2.5369    -0.4684 N.pl3   
  25 C25           -4.8227     1.7081    -0.8100 C.2     
  26 C26           -7.1422     2.6024    -1.1118 C.3     
  27 C27            5.9925     5.9290     2.9262 C.3     
  28 F28            6.0782     7.0669     2.1168 F       
  29 F29            6.3172     6.2686     4.2440 F       
  30 F30            6.8855     4.9577     2.4613 F       
  31 H31           -3.2660    -0.7077     0.0137 H       
  32 H32           -0.0889     5.1864     0.0378 H       
  33 H33           -2.1976     3.9616     0.0341 H       
  34 H34            3.1929     3.6491    -0.5159 H       
  35 H35            2.2657     5.1683    -0.4923 H       
  36 H36            2.1338     1.5582    -0.0097 H       
  37 H37            0.9908    -2.2651    -0.0139 H       
  38 H38            0.2373    -3.7668    -0.0182 H       
  39 H39            4.9162     4.2586     1.0698 H       
  40 H40            4.2625     5.8934     0.8097 H       
  41 H41            3.8703     6.1310     3.2424 H       
  42 H42            5.1974     3.3865     3.4210 H       
  43 H43            4.6841     4.3959     4.7957 H       
  44 H44            3.0001     2.6324     4.2522 H       
  45 H45            2.3404     4.2722     4.0361 H       
  46 H46            1.7376     2.8259     2.1195 H       
  47 H47            3.4604     2.4900     1.8250 H       
  48 H48           -3.5719     3.4271     1.6902 H       
  49 H49           -4.8419     0.9749    -1.6027 H       
  50 H50           -7.8253     1.9144    -0.6135 H       
  51 H51           -7.5320     3.6177    -1.0393 H       
  52 H52           -7.0473     2.3237    -2.1613 H       
  53 C53           12.8874    13.9740    10.7009 C.3     
  54 C54           12.9081    12.4442    10.6925 C.3     
  55 H55           13.9100    14.3513    10.6932 H       
  56 H56           12.3602    14.3351     9.8178 H       
  57 H57           12.3772    14.3255    11.5977 H       
  58 H58           13.4353    12.0831    11.5755 H       
  59 H59           11.8855    12.0669    10.7002 H       
  60 H60           13.4183    12.0926     9.7957 H       
@<TRIPOS>BOND
   1    1    6 ar
   2    1   14 ar
   3    1    2 ar
   4    2    3 ar
   5    2    9 ar
   6    3   10 1
   7    3    4 ar
   8    4    5 ar
   9    4   31 1
  10    5   11 1
  11    5    6 ar
  12    7   12 1
  13    7    8 ar
  14    7   14 ar
  15    8    9 ar
  16    8   32 1
  17    9   33 1
  18   10   25 2
  19   10   22 1
  20   11   15 am
  21   11   16 2
  22   12   13 1
  23   12   34 1
  24   12   35 1
  25   13   17 1
  26   13   21 1
  27   14   36 1
  28   15   37 1
  29   15   38 1
  30   17   18 1
  31   17   39 1
  32   17   40 1
  33   18   19 1
  34   18   27 1
  35   18   41 1
  36   19   20 1
  37   19   42 1
  38   19   43 1
  39   20   21 1
  40   20   44 1
  41   20   45 1
  42   21   46 1
  43   21   47 1
  44   22   23 2
  45   22   48 1
  46   23   24 1
  47   24   25 1
  48   24   26 1
  49   25   49 1
  50   26   50 1
  51   26   51 1
  52   26   52 1
  53   27   28 1
  54   27   29 1
  55   27   30 1
  56   53   54 1
  57   53   55 1
  58   53   56 1
  59   53   57 1
  60   54   58 1
  61   54   59 1
  62   54   60 1

#	End of record

