#	Name: ASD06660106
#	Creating user name:	WinNT
#	Creation time:	15. 06. 2019 21:08

#	Modifying user name:	WinNT
#	Modification time:	15. 06. 2019 21:08

#	Program:	/corina/corina34_cracker 3.40 0067  02.08.2006

@<TRIPOS>MOLECULE
ASD06660106
  76   80    0    0    0
SMALL
NO_CHARGES


@<TRIPOS>ATOM
   1 C1            -0.4849     1.5095     1.0439 C.2     
   2 C2            -0.3184     0.0660     0.6442 C.3     
   3 C3            -1.3256    -0.2782    -0.4549 C.3     
   4 O4             0.4381     2.2799     0.9238 O.2     
   5 O5            -1.6602     1.9405     1.5283 O.3     
   6 C6            -1.2586    -1.7539    -0.7533 C.ar    
   7 C7            -2.0351    -2.6394    -0.0276 C.ar    
   8 C8            -1.9779    -3.9917    -0.2958 C.ar    
   9 C9            -1.1352    -4.4652    -1.3014 C.ar    
  10 C10           -0.3550    -3.5672    -2.0300 C.ar    
  11 C11           -0.4250    -2.2167    -1.7557 C.ar    
  12 O12           -0.2411    -6.3271    -2.5735 O.3     
  13 C13           -1.0687    -5.9145    -1.5939 C.2     
  14 N14           -1.8048    -6.7086    -0.8972 N.2     
  15 C15           -1.8201    -8.1576    -1.0809 C.3     
  16 C16           -1.2258    -8.5128    -2.4477 C.3     
  17 C17            0.0787    -7.7215    -2.6213 C.3     
  18 C18           -0.9321   -10.0130    -2.5092 C.3     
  19 N19           -0.4767   -10.3667    -3.8559 N.pl3   
  20 C20           -0.1479   -11.6837    -4.1549 C.ar    
  21 C21           -0.2534   -12.6613    -3.1704 C.ar    
  22 C22            0.0771   -13.9676    -3.4817 C.ar    
  23 C23            0.5037   -14.2540    -4.7720 C.ar    
  24 C24            0.5849   -13.2347    -5.6991 C.ar    
  25 N25            0.2578   -11.9978    -5.3755 N.ar    
  26 C26            2.0671    -0.2687     1.0112 C.2     
  27 C27            3.4493    -0.3931     0.5071 C.ar    
  28 C28            4.0369    -1.6543     0.3782 C.ar    
  29 C29            5.3260    -1.7666    -0.0927 C.ar    
  30 C30            6.0430    -0.6267    -0.4398 C.ar    
  31 C31            5.4619     0.6297    -0.3124 C.ar    
  32 C32            4.1708     0.7493     0.1525 C.ar    
  33 O33            1.8537    -0.2747     2.2081 O.2     
  34 N34            1.0420    -0.1485     0.1445 N.am    
  35 C35            3.5393     2.1113     0.2840 C.3     
  36 C36            8.0470    -1.8992    -1.0946 C.2     
  37 N37            9.2319    -1.6045    -1.5549 N.2     
  38 C38            9.3391    -0.2739    -1.6880 C.2     
  39 C39            8.1778     0.2831    -1.2962 C.2     
  40 N40            7.3521    -0.7446    -0.9177 N.pl3   
  41 C41            3.2609    -2.8902     0.7545 C.3     
  42 C42            2.4329    -3.3572    -0.4444 C.3     
  43 H43           -0.4925    -0.5731     1.5098 H       
  44 H44           -2.3305    -0.0204    -0.1205 H       
  45 H45           -1.0867     0.2860    -1.3563 H       
  46 H46           -1.7190     2.8746     1.7711 H       
  47 H47           -2.6872    -2.2715     0.7508 H       
  48 H48           -2.5841    -4.6820     0.2720 H       
  49 H49            0.2996    -3.9278    -2.8096 H       
  50 H50            0.1754    -1.5200    -2.3218 H       
  51 H51           -1.2294    -8.6288    -0.2953 H       
  52 H52           -2.8471    -8.5189    -1.0272 H       
  53 H53           -1.9282    -8.2420    -3.2360 H       
  54 H54            0.5316    -7.9630    -3.5828 H       
  55 H55            0.7694    -7.9690    -1.8152 H       
  56 H56           -0.1550   -10.2611    -1.7861 H       
  57 H57           -1.8386   -10.5707    -2.2740 H       
  58 H58           -0.4048    -9.6818    -4.5390 H       
  59 H59           -0.5884   -12.4033    -2.1767 H       
  60 H60            0.0054   -14.7475    -2.7380 H       
  61 H61            0.7695   -15.2640    -5.0470 H       
  62 H62            0.9161   -13.4530    -6.7036 H       
  63 H63            5.7809    -2.7410    -0.1923 H       
  64 H64            6.0219     1.5129    -0.5822 H       
  65 H65            1.2049    -0.2041    -0.8101 H       
  66 H66            3.7441     2.5124     1.2766 H       
  67 H67            3.9551     2.7789    -0.4706 H       
  68 H68            2.4620     2.0276     0.1411 H       
  69 H69            7.6786    -2.8941    -0.8924 H       
  70 H70           10.2074     0.2585    -2.0472 H       
  71 H71            7.9417     1.3369    -1.2825 H       
  72 H72            3.9537    -3.6792     1.0470 H       
  73 H73            2.5967    -2.6623     1.5882 H       
  74 H74            1.7961    -4.1893    -0.1441 H       
  75 H75            1.8122    -2.5346    -0.7998 H       
  76 H76            3.1004    -3.6802    -1.2432 H       
@<TRIPOS>BOND
   1    1    2 1
   2    1    4 2
   3    1    5 1
   4    2    3 1
   5    2   34 1
   6    2   43 1
   7    3    6 1
   8    3   44 1
   9    3   45 1
  10    5   46 1
  11    6    7 ar
  12    6   11 ar
  13    7    8 ar
  14    7   47 1
  15    8    9 ar
  16    8   48 1
  17    9   10 ar
  18    9   13 1
  19   10   11 ar
  20   10   49 1
  21   11   50 1
  22   12   13 1
  23   12   17 1
  24   13   14 2
  25   14   15 1
  26   15   16 1
  27   15   51 1
  28   15   52 1
  29   16   17 1
  30   16   18 1
  31   16   53 1
  32   17   54 1
  33   17   55 1
  34   18   19 1
  35   18   56 1
  36   18   57 1
  37   19   20 1
  38   19   58 1
  39   20   21 ar
  40   20   25 ar
  41   21   22 ar
  42   21   59 1
  43   22   23 ar
  44   22   60 1
  45   23   24 ar
  46   23   61 1
  47   24   25 ar
  48   24   62 1
  49   26   27 1
  50   26   33 2
  51   26   34 am
  52   27   28 ar
  53   27   32 ar
  54   28   29 ar
  55   28   41 1
  56   29   30 ar
  57   29   63 1
  58   30   31 ar
  59   30   40 1
  60   31   32 ar
  61   31   64 1
  62   32   35 1
  63   34   65 1
  64   35   66 1
  65   35   67 1
  66   35   68 1
  67   36   37 2
  68   36   40 1
  69   36   69 1
  70   37   38 1
  71   38   39 2
  72   38   70 1
  73   39   40 1
  74   39   71 1
  75   41   42 1
  76   41   72 1
  77   41   73 1
  78   42   74 1
  79   42   75 1
  80   42   76 1

#	End of record

