#	Name: ASD09890053
#	Creating user name:	WinNT
#	Creation time:	15. 06. 2019 21:24

#	Modifying user name:	WinNT
#	Modification time:	15. 06. 2019 21:24

#	Program:	/corina/corina34_cracker 3.40 0067  02.08.2006

@<TRIPOS>MOLECULE
ASD09890053
  46   48    0    0    0
SMALL
NO_CHARGES


@<TRIPOS>ATOM
   1 C1            -0.8232     3.2929     0.3089 C.ar    
   2 C2            -1.4764     2.0861     0.4801 C.ar    
   3 C3            -0.7518     0.9131     0.5860 C.ar    
   4 C4             0.6274     0.9433     0.5210 C.ar    
   5 C5             1.2867     2.1538     0.3491 C.ar    
   6 C6             0.5557     3.3303     0.2432 C.ar    
   7 C7             3.5547     4.1341     1.4408 C.2     
   8 N8             4.6818     4.1043     2.2186 N.pl3   
   9 C9             4.3825     4.8434     3.3302 C.2     
  10 N10            3.1487     5.2691     3.1873 N.2     
  11 N11            2.6684     4.8525     2.0705 N.2     
  12 S12            5.4500     5.1627     4.6952 S.3     
  13 C13            4.3561     6.1786     5.7186 C.3     
  14 C14            5.0426     6.4836     7.0516 C.3     
  15 C15            4.0492     7.4893     4.9915 C.3     
  16 C16            5.8902     3.4516     1.9350 C.ar    
  17 C17            7.0499     4.1892     1.7397 C.ar    
  18 C18            8.2387     3.5435     1.4609 C.ar    
  19 C19            8.2744     2.1638     1.3763 C.ar    
  20 C20            7.1209     1.4265     1.5704 C.ar    
  21 C21            5.9302     2.0663     1.8546 C.ar    
  22 H22           -2.5548     2.0598     0.5316 H       
  23 C23            3.3751     3.4656     0.1022 C.3     
  24 N24            2.6815     2.1880     0.2835 N.pl3   
  25 C25            3.4508     0.9463     0.3959 C.3     
  26 H26           -1.3923     4.2067     0.2221 H       
  27 H27           -1.2650    -0.0277     0.7199 H       
  28 H28            1.1927     0.0268     0.6041 H       
  29 H29            1.0652     4.2731     0.1092 H       
  30 H30            3.4270     5.6395     5.9035 H       
  31 H31            5.9717     7.0227     6.8667 H       
  32 H32            4.3839     7.0954     7.6679 H       
  33 H33            5.2613     5.5498     7.5696 H       
  34 H34            4.9783     8.0285     4.8066 H       
  35 H35            3.5601     7.2721     4.0419 H       
  36 H36            3.3905     8.1011     5.6078 H       
  37 H37            7.0225     5.2668     1.8053 H       
  38 H38            9.1412     4.1169     1.3085 H       
  39 H39            9.2050     1.6612     1.1579 H       
  40 H40            7.1518     0.3490     1.5037 H       
  41 H41            5.0296     1.4899     2.0064 H       
  42 H42            2.7852     4.1100    -0.5496 H       
  43 H43            4.3513     3.2882    -0.3492 H       
  44 H44            3.5806     0.6934     1.4482 H       
  45 H45            2.9165     0.1410    -0.1081 H       
  46 H46            4.4276     1.0808    -0.0686 H       
@<TRIPOS>BOND
   1    1    2 ar
   2    1    6 ar
   3    1   26 1
   4    2    3 ar
   5    2   22 1
   6    3    4 ar
   7    3   27 1
   8    4    5 ar
   9    4   28 1
  10    5    6 ar
  11    5   24 1
  12    6   29 1
  13    7    8 1
  14    7   23 1
  15    7   11 2
  16    8    9 1
  17    8   16 1
  18    9   10 2
  19    9   12 1
  20   10   11 1
  21   12   13 1
  22   13   14 1
  23   13   15 1
  24   13   30 1
  25   14   31 1
  26   14   32 1
  27   14   33 1
  28   15   34 1
  29   15   35 1
  30   15   36 1
  31   16   17 ar
  32   16   21 ar
  33   17   18 ar
  34   17   37 1
  35   18   19 ar
  36   18   38 1
  37   19   20 ar
  38   19   39 1
  39   20   21 ar
  40   20   40 1
  41   21   41 1
  42   23   24 1
  43   23   42 1
  44   23   43 1
  45   24   25 1
  46   25   44 1
  47   25   45 1
  48   25   46 1

#	End of record

