#	Name: ASD08150535
#	Creating user name:	WinNT
#	Creation time:	15. 06. 2019 21:16

#	Modifying user name:	WinNT
#	Modification time:	15. 06. 2019 21:16

#	Program:	/corina/corina34_cracker 3.40 0067  02.08.2006

@<TRIPOS>MOLECULE
ASD08150535
  30   32    0    0    0
SMALL
NO_CHARGES


@<TRIPOS>ATOM
   1 N1            -0.0155     1.2942     0.0092 N.2     
   2 C2             0.0021    -0.0041     0.0020 C.2     
   3 N3             1.1489    -0.7359    -0.0124 N.am    
   4 C4             2.3562    -0.1243    -0.0202 C.2     
   5 C5             2.3706     1.3443    -0.0129 C.ar    
   6 C6             3.5626     2.0708    -0.0195 C.ar    
   7 C7             3.5166     3.4510    -0.0117 C.ar    
   8 C8             2.2986     4.1157     0.0030 C.ar    
   9 C9             1.1119     3.4164     0.0097 C.ar    
  10 C10            1.1301     2.0208     0.0021 C.ar    
  11 O11            3.3903    -0.7666    -0.0323 O.2     
  12 F12            4.7514     1.4291    -0.0329 F       
  13 C13            1.0795    -2.1352    -0.0188 C.ar    
  14 C14            1.0563    -2.8369     1.1807 C.ar    
  15 C15            0.9878    -4.2171     1.1703 C.ar    
  16 C16            0.9430    -4.8994    -0.0318 C.ar    
  17 C17            0.9660    -4.2037    -1.2264 C.ar    
  18 C18            1.0281    -2.8235    -1.2231 C.ar    
  19 Cl19           1.1137    -1.9808     2.6898 Cl      
  20 C20           -1.3144    -0.7374     0.0106 C.3     
  21 Cl21          -2.6666     0.4552     0.0300 Cl      
  22 H22            4.4360     4.0176    -0.0168 H       
  23 H23            2.2809     5.1955     0.0096 H       
  24 H24            0.1708     3.9461     0.0208 H       
  25 H25            0.9697    -4.7634     2.1018 H       
  26 H26            0.8902    -5.9781    -0.0374 H       
  27 H27            0.9308    -4.7397    -2.1633 H       
  28 H28            1.0411    -2.2809    -2.1568 H       
  29 H29           -1.3903    -1.3583    -0.8820 H       
  30 H30           -1.3734    -1.3679     0.8979 H       
@<TRIPOS>BOND
   1    1    2 2
   2    1   10 1
   3    2    3 1
   4    2   20 1
   5    3    4 am
   6    3   13 1
   7    4    5 1
   8    4   11 2
   9    5    6 ar
  10    5   10 ar
  11    6    7 ar
  12    6   12 1
  13    7    8 ar
  14    7   22 1
  15    8    9 ar
  16    8   23 1
  17    9   10 ar
  18    9   24 1
  19   13   14 ar
  20   13   18 ar
  21   14   15 ar
  22   14   19 1
  23   15   16 ar
  24   15   25 1
  25   16   17 ar
  26   16   26 1
  27   17   18 ar
  28   17   27 1
  29   18   28 1
  30   20   21 1
  31   20   29 1
  32   20   30 1

#	End of record

