#	Name: ASD01813046
#	Creating user name:	WinNT
#	Creation time:	15. 06. 2019 19:29

#	Modifying user name:	WinNT
#	Modification time:	15. 06. 2019 19:29

#	Program:	/corina/corina34_cracker 3.40 0067  02.08.2006

@<TRIPOS>MOLECULE
ASD01813046
  54   57    0    0    0
SMALL
NO_CHARGES


@<TRIPOS>ATOM
   1 C1            -1.9333     1.4086     0.0523 C.2     
   2 C2            -2.0263     0.0689     0.0937 C.2     
   3 N3            -0.9097    -0.7128     0.0002 N.pl3   
   4 C4             0.3278    -0.2182    -0.1228 C.2     
   5 C5             0.5281     1.1474    -0.1645 C.2     
   6 C6            -0.6530     2.0158    -0.0774 C.2     
   7 O7            -0.5384     3.2308    -0.1080 O.2     
   8 C8            -1.0755    -2.1679     0.0372 C.3     
   9 C9            -0.8961    -2.6582     1.4508 C.ar    
  10 C10           -3.1270     2.3226     0.1304 C.3     
  11 C11           -4.3400     1.5827     0.6903 C.3     
  12 C12           -4.5086     0.2775    -0.0975 C.3     
  13 C13           -3.3454    -0.6464     0.2536 C.3     
  14 C14           -2.0033    -2.8659     2.2538 C.ar    
  15 C15           -1.8452    -3.3148     3.5491 C.ar    
  16 C16           -0.5664    -3.5591     4.0480 C.ar    
  17 C17            0.5457    -3.3479     3.2341 C.ar    
  18 C18            0.3749    -2.9043     1.9386 C.ar    
  19 C19           -0.3898    -4.0409     5.4388 C.ar    
  20 C20            0.8920    -4.2842     5.9344 C.ar    
  21 C21            1.0577    -4.7303     7.2201 C.ar    
  22 C22           -0.0601    -4.9414     8.0362 C.ar    
  23 C23           -1.3449    -4.6962     7.5369 C.ar    
  24 C24           -1.5053    -4.2451     6.2523 C.ar    
  25 O25           -2.8175     3.4290     0.9801 O.3     
  26 C26            0.1149    -5.4201     9.4149 C.2     
  27 O27            1.2170    -5.7328     9.8130 O.2     
  28 C28           -1.0751    -5.5223    10.3338 C.3     
  29 C29            1.8797     1.7137    -0.2964 C.2     
  30 O30            2.8430     0.9762    -0.3707 O.2     
  31 O31            2.0497     3.0502    -0.3348 O.3     
  32 H32            1.1718    -0.8887    -0.1894 H       
  33 H33           -2.0739    -2.4288    -0.3139 H       
  34 H34           -0.3304    -2.6350    -0.6068 H       
  35 H35           -3.3617     2.6924    -0.8678 H       
  36 H36           -4.1794     1.3580     1.7447 H       
  37 H37           -5.2318     2.1990     0.5764 H       
  38 H38           -5.4508    -0.1976     0.1757 H       
  39 H39           -4.4996     0.4897    -1.1666 H       
  40 H40           -3.3651    -1.5143    -0.4056 H       
  41 H41           -3.4503    -0.9788     1.2863 H       
  42 H42           -2.9933    -2.6760     1.8663 H       
  43 H43           -2.7102    -3.4763     4.1751 H       
  44 H44            1.5387    -3.5352     3.6153 H       
  45 H45            1.2356    -2.7403     1.3071 H       
  46 H46            1.7540    -4.1213     5.3045 H       
  47 H47            2.0498    -4.9191     7.6030 H       
  48 H48           -2.2087    -4.8586     8.1646 H       
  49 H49           -2.4963    -4.0558     5.8667 H       
  50 H50           -3.5408     4.0631     1.0794 H       
  51 H51           -1.9837    -5.2879     9.7792 H       
  52 H52           -1.1424    -6.5356    10.7298 H       
  53 H53           -0.9600    -4.8174    11.1572 H       
  54 H54            2.9562     3.3751    -0.4223 H       
@<TRIPOS>BOND
   1    1    2 2
   2    1   10 1
   3    1    6 1
   4    2    3 1
   5    2   13 1
   6    3    4 1
   7    3    8 1
   8    4    5 2
   9    4   32 1
  10    5    6 1
  11    5   29 1
  12    6    7 2
  13    8    9 1
  14    8   33 1
  15    8   34 1
  16    9   14 ar
  17    9   18 ar
  18   10   11 1
  19   10   25 1
  20   10   35 1
  21   11   12 1
  22   11   36 1
  23   11   37 1
  24   12   13 1
  25   12   38 1
  26   12   39 1
  27   13   40 1
  28   13   41 1
  29   14   15 ar
  30   14   42 1
  31   15   16 ar
  32   15   43 1
  33   16   17 ar
  34   16   19 1
  35   17   18 ar
  36   17   44 1
  37   18   45 1
  38   19   20 ar
  39   19   24 ar
  40   20   21 ar
  41   20   46 1
  42   21   22 ar
  43   21   47 1
  44   22   23 ar
  45   22   26 1
  46   23   24 ar
  47   23   48 1
  48   24   49 1
  49   25   50 1
  50   26   27 2
  51   26   28 1
  52   28   51 1
  53   28   52 1
  54   28   53 1
  55   29   30 2
  56   29   31 1
  57   31   54 1

#	End of record

