#	Name: ASD01916821
#	Creating user name:	WinNT
#	Creation time:	15. 06. 2019 20:08

#	Modifying user name:	WinNT
#	Modification time:	15. 06. 2019 20:08

#	Program:	/corina/corina34_cracker 3.40 0067  02.08.2006

@<TRIPOS>MOLECULE
ASD01916821
  66   70    0    0    0
SMALL
NO_CHARGES


@<TRIPOS>ATOM
   1 C1            -0.0167     1.3810     0.0096 C.ar    
   2 C2             0.0021    -0.0041     0.0020 C.ar    
   3 C3            -1.1861    -0.7171     0.0091 C.ar    
   4 C4            -2.3933    -0.0497     0.0237 C.ar    
   5 C5            -2.4168     1.3437     0.0319 C.ar    
   6 C6            -1.2198     2.0567     0.0305 C.ar    
   7 C7            -3.7131     2.0660     0.0471 C.2     
   8 N8            -4.9251     1.4950     0.0543 N.2     
   9 N9            -3.8624     3.3724     0.0616 N.2     
  10 N10           -5.2446     3.6207     0.0724 N.pl3   
  11 C11           -5.8491     2.4191     0.0674 C.2     
  12 C12           -7.3369     2.1795     0.0747 C.3     
  13 C13           -5.8994     4.9311     0.0899 C.3     
  14 C14           -6.1330     5.3949    -1.3248 C.2     
  15 O15           -5.7865     4.6994    -2.2560 O.2     
  16 N16           -6.7268     6.5827    -1.5551 N.am    
  17 C17           -6.9642     7.0543    -2.9279 C.3     
  18 C18           -8.4352     7.4649    -3.0540 C.3     
  19 N19           -8.7620     8.4336    -1.9991 N.3     
  20 C20           -8.6181     7.8369    -0.6645 C.3     
  21 C21           -7.1602     7.4388    -0.4405 C.3     
  22 C22          -10.0393     8.9526    -2.1777 C.ar    
  23 C23          -10.5331     9.8889    -1.2783 C.ar    
  24 N24          -10.7715     8.5535    -3.2073 N.ar    
  25 C25          -11.8109    10.3990    -1.4699 C.ar    
  26 C26          -12.5485     9.9467    -2.5640 C.ar    
  27 C27          -11.9892     9.0197    -3.4165 C.ar    
  28 C28           -7.7500     1.3911    -1.1805 C.3     
  29 F29            1.1822    -0.6616    -0.0128 F       
  30 C30           -8.3761     0.0709    -0.6854 C.3     
  31 C31           -8.8525     0.3924     0.7529 C.3     
  32 C32           -7.7264     1.3110     1.2887 C.3     
  33 C33            1.2786     2.1512     0.0014 C.3     
  34 O34          -12.3294    11.3152    -0.6128 O.3     
  35 C35          -13.6508    11.7850    -0.8869 C.3     
  36 H36           -1.1669    -1.7969     0.0027 H       
  37 H37           -3.3189    -0.6062     0.0285 H       
  38 H38           -1.2336     3.1365     0.0372 H       
  39 H39           -7.8679     3.1308     0.1096 H       
  40 H40           -6.8547     4.8530     0.6091 H       
  41 H41           -5.2625     5.6487     0.6071 H       
  42 H42           -6.3254     7.9126    -3.1358 H       
  43 H43           -6.7461     6.2525    -3.6334 H       
  44 H44           -8.6035     7.9196    -4.0302 H       
  45 H45           -9.0689     6.5844    -2.9483 H       
  46 H46           -8.9191     8.5614     0.0922 H       
  47 H47           -9.2493     6.9512    -0.5921 H       
  48 H48           -7.0698     6.8934     0.4989 H       
  49 H49           -6.5371     8.3327    -0.4095 H       
  50 H50           -9.9325    10.2152    -0.4421 H       
  51 H51          -13.5454    10.3217    -2.7431 H       
  52 H52          -12.5562     8.6663    -4.2650 H       
  53 H53           -8.4820     1.9594    -1.7543 H       
  54 H54           -6.8743     1.1817    -1.7949 H       
  55 H55           -9.2216    -0.2095    -1.3137 H       
  56 H56           -7.6299    -0.7235    -0.6715 H       
  57 H57           -9.8060     0.9203     0.7350 H       
  58 H58           -8.9247    -0.5178     1.3483 H       
  59 H59           -6.8753     0.7168     1.6214 H       
  60 H60           -8.0978     1.9355     2.1012 H       
  61 H61            1.5811     2.3424    -1.0282 H       
  62 H62            1.1411     3.0991     0.5217 H       
  63 H63            2.0506     1.5691     0.5048 H       
  64 H64          -13.6720    12.2577    -1.8688 H       
  65 H65          -14.3453    10.9450    -0.8730 H       
  66 H66          -13.9431    12.5107    -0.1279 H       
@<TRIPOS>BOND
   1    1    2 ar
   2    1   33 1
   3    1    6 ar
   4    2    3 ar
   5    2   29 1
   6    3    4 ar
   7    3   36 1
   8    4    5 ar
   9    4   37 1
  10    5    6 ar
  11    5    7 1
  12    6   38 1
  13    7    8 1
  14    7    9 2
  15    8   11 2
  16    9   10 1
  17   10   11 1
  18   10   13 1
  19   11   12 1
  20   12   28 1
  21   12   32 1
  22   12   39 1
  23   13   14 1
  24   13   40 1
  25   13   41 1
  26   14   15 2
  27   14   16 am
  28   16   17 1
  29   16   21 1
  30   17   18 1
  31   17   42 1
  32   17   43 1
  33   18   19 1
  34   18   44 1
  35   18   45 1
  36   19   20 1
  37   19   22 1
  38   20   21 1
  39   20   46 1
  40   20   47 1
  41   21   48 1
  42   21   49 1
  43   22   23 ar
  44   22   24 ar
  45   23   25 ar
  46   23   50 1
  47   24   27 ar
  48   25   26 ar
  49   25   34 1
  50   26   27 ar
  51   26   51 1
  52   27   52 1
  53   28   30 1
  54   28   53 1
  55   28   54 1
  56   30   31 1
  57   30   55 1
  58   30   56 1
  59   31   32 1
  60   31   57 1
  61   31   58 1
  62   32   59 1
  63   32   60 1
  64   33   61 1
  65   33   62 1
  66   33   63 1
  67   34   35 1
  68   35   64 1
  69   35   65 1
  70   35   66 1

#	End of record

