#	Name: ASD02198612
#	Creating user name:	WinNT
#	Creation time:	15. 06. 2019 20:19

#	Modifying user name:	WinNT
#	Modification time:	15. 06. 2019 20:19

#	Program:	/corina/corina34_cracker 3.40 0067  02.08.2006

@<TRIPOS>MOLECULE
ASD02198612
  38   41    0    0    0
SMALL
NO_CHARGES


@<TRIPOS>ATOM
   1 C1            -0.0439     1.5053    -0.1134 C.2     
   2 C2            -0.0746     0.1657     0.0995 C.2     
   3 N3             1.0694    -0.5367     0.2618 N.pl3   
   4 N4             2.2343    -0.0029     0.2272 N.2     
   5 C5             2.4068     1.2861     0.0286 C.2     
   6 C6             1.2215     2.1383    -0.1594 C.2     
   7 C7             0.9769    -1.9157     0.4788 C.ar    
   8 C8             1.5771    -2.4875     1.5964 C.ar    
   9 C9             1.4838    -3.8509     1.8079 C.ar    
  10 C10            0.7951    -4.6458     0.9103 C.ar    
  11 C11            0.1970    -4.0801    -0.2032 C.ar    
  12 C12            0.2812    -2.7159    -0.4175 C.ar    
  13 C13            3.7643     1.8673    -0.0047 C.2     
  14 N14            4.3065     2.6065    -1.0182 N.pl3   
  15 N15            5.6089     2.9568    -0.6411 N.2     
  16 C16            5.8528     2.4572     0.5442 C.2     
  17 C17            4.7202     1.7712     0.9827 C.2     
  18 C18            3.6731     2.9519    -2.2188 C.ar    
  19 C19            2.9049     2.0134    -2.8952 C.ar    
  20 O20            1.3253     3.3413    -0.3473 O.2     
  21 C21            3.8073     4.2352    -2.7322 C.ar    
  22 C22            3.1816     4.5726    -3.9162 C.ar    
  23 C23            2.4220     3.6342    -4.5904 C.ar    
  24 C24            2.2817     2.3571    -4.0788 C.ar    
  25 F25            2.2506    -1.7116     2.4737 F       
  26 F26           -0.4743    -4.8604    -1.0782 F       
  27 H27           -0.9549     2.0696    -0.2478 H       
  28 H28           -1.0247    -0.3460     0.1403 H       
  29 H29            1.9498    -4.2953     2.6750 H       
  30 H30            0.7237    -5.7104     1.0779 H       
  31 H31           -0.1854    -2.2753    -1.2861 H       
  32 H32            6.7766     2.5627     1.0936 H       
  33 H33            4.6142     1.2522     1.9239 H       
  34 H34            2.7952     1.0158    -2.4964 H       
  35 H35            4.4002     4.9687    -2.2059 H       
  36 H36            3.2853     5.5706    -4.3158 H       
  37 H37            1.9336     3.9005    -5.5162 H       
  38 H38            1.6881     1.6263    -4.6079 H       
@<TRIPOS>BOND
   1    1    2 2
   2    1    6 1
   3    1   27 1
   4    2    3 1
   5    2   28 1
   6    3    4 1
   7    3    7 1
   8    4    5 2
   9    5    6 1
  10    5   13 1
  11    6   20 2
  12    7    8 ar
  13    7   12 ar
  14    8    9 ar
  15    8   25 1
  16    9   10 ar
  17    9   29 1
  18   10   11 ar
  19   10   30 1
  20   11   12 ar
  21   11   26 1
  22   12   31 1
  23   13   14 1
  24   13   17 2
  25   14   15 1
  26   14   18 1
  27   15   16 2
  28   16   17 1
  29   16   32 1
  30   17   33 1
  31   18   21 ar
  32   18   19 ar
  33   19   24 ar
  34   19   34 1
  35   21   22 ar
  36   21   35 1
  37   22   23 ar
  38   22   36 1
  39   23   24 ar
  40   23   37 1
  41   24   38 1

#	End of record

