#	Name: ASD01940499
#	Creating user name:	WinNT
#	Creation time:	15. 06. 2019 20:12

#	Modifying user name:	WinNT
#	Modification time:	15. 06. 2019 20:12

#	Program:	/corina/corina34_cracker 3.40 0067  02.08.2006

@<TRIPOS>MOLECULE
ASD01940499
  20   20    0    0    0
SMALL
NO_CHARGES


@<TRIPOS>ATOM
   1 C1            -0.0178     1.4608     0.0101 C.2     
   2 C2             0.0021    -0.0041     0.0020 C.ar    
   3 C3            -1.2022    -0.7260     0.0096 C.ar    
   4 C4            -1.1755    -2.1041     0.0020 C.ar    
   5 C5             0.0397    -2.7794    -0.0132 C.ar    
   6 C6             1.2359    -2.0715    -0.0203 C.ar    
   7 C7             1.2251    -0.6927    -0.0192 C.ar    
   8 O8             1.0246     2.0817     0.0035 O.2     
   9 N9            -2.4440    -2.8671     0.0105 N.pl3   
  10 O10           -2.9763    -3.1754    -1.0407 O.2     
  11 O11           -2.9554    -3.1866     1.0688 O.2     
  12 O12            0.0581    -4.1359    -0.0206 O.3     
  13 C13            1.3400    -4.7672    -0.0362 C.3     
  14 F14            2.3886    -0.0063    -0.0323 F       
  15 F15           -2.3840    -0.0716     0.0248 F       
  16 H16           -0.9603     1.9880     0.0174 H       
  17 H17            2.1761    -2.6028    -0.0317 H       
  18 H18            1.2118    -5.8496    -0.0407 H       
  19 H19            1.8845    -4.4620    -0.9297 H       
  20 H20            1.9014    -4.4715     0.8501 H       
@<TRIPOS>BOND
   1    1    2 1
   2    1    8 2
   3    1   16 1
   4    2    3 ar
   5    2    7 ar
   6    3    4 ar
   7    3   15 1
   8    4    5 ar
   9    4    9 1
  10    5    6 ar
  11    5   12 1
  12    6    7 ar
  13    6   17 1
  14    7   14 1
  15    9   10 2
  16    9   11 2
  17   12   13 1
  18   13   18 1
  19   13   19 1
  20   13   20 1

#	End of record

