#	Name: ASD00990086
#	Creating user name:	WinNT
#	Creation time:	15. 06. 2019 18:54

#	Modifying user name:	WinNT
#	Modification time:	15. 06. 2019 18:54

#	Program:	/corina/corina34_cracker 3.40 0067  02.08.2006

@<TRIPOS>MOLECULE
ASD00990086
  63   67    0    0    0
SMALL
NO_CHARGES


@<TRIPOS>ATOM
   1 C1            -0.0169     1.3920     0.0097 C.ar    
   2 C2             0.0021    -0.0041     0.0020 C.ar    
   3 C3             1.2243    -0.6751    -0.0110 C.ar    
   4 C4             2.4112     0.0371    -0.0156 C.ar    
   5 C5             2.3848     1.4174    -0.0123 C.ar    
   6 C6             1.1708     2.0901     0.0021 C.ar    
   7 C7             3.7061    -0.7328    -0.0177 C.3     
   8 N8             4.8159     0.1298    -0.4350 N.3     
   9 C9             4.8403     1.3572     0.3763 C.3     
  10 C10            3.6537     2.2314    -0.0298 C.3     
  11 C11            6.0975    -0.5831    -0.3500 C.3     
  12 C12            6.1168    -1.7212    -1.3723 C.3     
  13 C13            7.4516    -2.4637    -1.2838 C.3     
  14 C14            7.5215    -3.5206    -2.3878 C.3     
  15 C15            7.5671    -3.1442     0.0817 C.3     
  16 C16            8.9019    -3.8866     0.1702 C.3     
  17 C17            8.9718    -4.9436    -0.9338 C.3     
  18 C18            8.8564    -4.2631    -2.2993 C.3     
  19 N19           10.2500    -5.6545    -0.8490 N.am    
  20 C20           10.3587    -6.9059    -1.3376 C.2     
  21 C21           11.6362    -7.6165    -1.2529 C.2     
  22 O22            9.3952    -7.4452    -1.8492 O.2     
  23 C23           11.8798    -8.8613    -1.6991 C.2     
  24 C24           12.9148    -7.0777    -0.6545 C.3     
  25 C25           13.9306    -8.1831    -0.8091 C.ar    
  26 C26           13.2745    -9.2435    -1.4425 C.ar    
  27 C27           15.2571    -8.2926    -0.4625 C.ar    
  28 C28           15.9508    -9.4594    -0.7374 C.ar    
  29 C29           15.3125   -10.5179    -1.3605 C.ar    
  30 C30           13.9850   -10.4188    -1.7172 C.ar    
  31 C31           -1.2253    -0.7417     0.0079 C.1     
  32 N32           -2.1990    -1.3269     0.0126 N.1     
  33 H33           -0.9579     1.9219     0.0170 H       
  34 H34            1.2450    -1.7549    -0.0171 H       
  35 H35            1.1571     3.1700     0.0079 H       
  36 H36            3.9018    -1.1103     0.9860 H       
  37 H37            3.6242    -1.5726    -0.7077 H       
  38 H38            4.7609     1.0997     1.4325 H       
  39 H39            5.7706     1.8962     0.1969 H       
  40 H40            3.8191     2.6223    -1.0338 H       
  41 H41            3.5603     3.0623     0.6695 H       
  42 H42            6.9128     0.1089    -0.5611 H       
  43 H43            6.2194    -0.9931     0.6526 H       
  44 H44            5.3015    -2.4131    -1.1612 H       
  45 H45            5.9949    -1.3112    -2.3749 H       
  46 H46            8.2705    -1.7549    -1.4069 H       
  47 H47            6.7026    -4.2294    -2.2647 H       
  48 H48            7.4392    -3.0358    -3.3606 H       
  49 H49            7.5173    -2.3912     0.8683 H       
  50 H50            6.7482    -3.8529     0.2049 H       
  51 H51            9.7208    -3.1779     0.0471 H       
  52 H52            8.9842    -4.3714     1.1430 H       
  53 H53            8.1530    -5.6523    -0.8107 H       
  54 H54            8.9062    -5.0161    -3.0858 H       
  55 H55            9.6752    -3.5543    -2.4225 H       
  56 H56           11.0180    -5.2246    -0.4413 H       
  57 H57           11.1490    -9.4943    -2.1804 H       
  58 H58           13.2392    -6.1890    -1.1959 H       
  59 H59           12.7685    -6.8449     0.4003 H       
  60 H60           15.7579    -7.4685     0.0238 H       
  61 H61           16.9925    -9.5436    -0.4652 H       
  62 H62           15.8591   -11.4250    -1.5724 H       
  63 H63           13.4919   -11.2480    -2.2028 H       
@<TRIPOS>BOND
   1    1    2 ar
   2    1    6 ar
   3    1   33 1
   4    2    3 ar
   5    2   31 1
   6    3    4 ar
   7    3   34 1
   8    4    5 ar
   9    4    7 1
  10    5    6 ar
  11    5   10 1
  12    6   35 1
  13    7    8 1
  14    7   36 1
  15    7   37 1
  16    8    9 1
  17    8   11 1
  18    9   10 1
  19    9   38 1
  20    9   39 1
  21   10   40 1
  22   10   41 1
  23   11   12 1
  24   11   42 1
  25   11   43 1
  26   12   13 1
  27   12   44 1
  28   12   45 1
  29   13   14 1
  30   13   15 1
  31   13   46 1
  32   14   18 1
  33   14   47 1
  34   14   48 1
  35   15   16 1
  36   15   49 1
  37   15   50 1
  38   16   17 1
  39   16   51 1
  40   16   52 1
  41   17   18 1
  42   17   19 1
  43   17   53 1
  44   18   54 1
  45   18   55 1
  46   19   20 am
  47   19   56 1
  48   20   21 1
  49   20   22 2
  50   21   23 2
  51   21   24 1
  52   23   26 1
  53   23   57 1
  54   24   25 1
  55   24   58 1
  56   24   59 1
  57   25   26 ar
  58   25   27 ar
  59   26   30 ar
  60   27   28 ar
  61   27   60 1
  62   28   29 ar
  63   28   61 1
  64   29   30 ar
  65   29   62 1
  66   30   63 1
  67   31   32 3

#	End of record

