#	Name: ASD07932208
#	Creating user name:	WinNT
#	Creation time:	15. 06. 2019 21:14

#	Modifying user name:	WinNT
#	Modification time:	15. 06. 2019 21:14

#	Program:	/corina/corina34_cracker 3.40 0067  02.08.2006

@<TRIPOS>MOLECULE
ASD07932208
  61   62    0    0    0
SMALL
NO_CHARGES


@<TRIPOS>ATOM
   1 Cl1            0.0000     0.0000     0.0000 Cl      
   2 H2             0.0000     1.3700     0.0000 H       
   3 Cl3            5.0000     6.3700     5.0000 Cl      
   4 H4             5.0000     7.7400     5.0000 H       
   5 C5            10.9474    19.7939    16.3387 C.ar    
   6 C6            10.9662    18.4009    16.3311 C.ar    
   7 C7            12.1436    17.7164    16.3167 C.ar    
   8 C8            13.3576    18.4206    16.3089 C.ar    
   9 C9            13.3445    19.8400    16.3161 C.ar    
  10 C10           12.1050    20.5127    16.3315 C.ar    
  11 C11           14.5935    17.7465    16.2945 C.ar    
  12 C12           15.7361    18.4928    16.2880 C.ar    
  13 C13           15.6545    19.8935    16.2957 C.ar    
  14 N14           14.4921    20.5164    16.3097 N.ar    
  15 C15           16.9037    20.6917    16.2890 C.2     
  16 N16           16.8431    22.0381    16.2962 N.am    
  17 O17           17.9821    20.1321    16.2769 O.2     
  18 C18           18.0776    22.8268    16.2895 C.3     
  19 C19           17.8088    24.2001    16.9083 C.3     
  20 C20           19.0981    25.0238    16.9014 C.3     
  21 C21           19.5832    25.1996    15.4610 C.3     
  22 C22           19.8520    23.8264    14.8422 C.3     
  23 C23           18.5628    23.0026    14.8492 C.3     
  24 O24           17.3557    24.0359    18.2536 O.3     
  25 C25           14.6531    16.2407    16.2870 C.3     
  26 N26           14.4198    15.7482    14.9229 N.3     
  27 C27           14.7025    14.3104    14.8269 C.3     
  28 C28           14.3113    13.8039    13.4368 C.3     
  29 C29           15.1064    14.5713    12.3769 C.3     
  30 C30           14.8316    16.0699    12.5297 C.3     
  31 C31           15.2078    16.5107    13.9461 C.3     
  32 F32           16.4730    14.3266    12.5495 F       
  33 F33           12.0656    21.8631    16.3387 F       
  34 C34           14.6919    14.1295    11.0353 C.1     
  35 N35           14.3720    13.7885    10.0000 N.1     
  36 H36           10.0000    20.3124    16.3460 H       
  37 H37           10.0338    17.8560    16.3370 H       
  38 H38           12.1431    16.6364    16.3116 H       
  39 H39           16.7004    18.0066    16.2774 H       
  40 H40           15.9822    22.4848    16.3058 H       
  41 H41           18.8421    22.3102    16.8699 H       
  42 H42           17.0444    24.7167    16.3280 H       
  43 H43           18.9065    26.0021    17.3422 H       
  44 H44           19.8625    24.5072    17.4817 H       
  45 H45           18.8188    25.7163    14.8806 H       
  46 H46           20.5017    25.7865    15.4560 H       
  47 H47           20.1977    23.9517    13.8161 H       
  48 H48           20.6165    23.3098    15.4225 H       
  49 H49           18.7543    22.0243    14.4083 H       
  50 H50           17.7983    23.5193    14.2688 H       
  51 H51           17.1654    24.8675    18.7088 H       
  52 H52           15.6356    15.9143    16.6281 H       
  53 H53           13.8869    15.8434    16.9528 H       
  54 H54           15.7663    14.1378    14.9902 H       
  55 H55           14.1277    13.7759    15.5832 H       
  56 H56           14.5358    12.7400    13.3606 H       
  57 H57           13.2448    13.9637    13.2781 H       
  58 H58           15.4279    16.6249    11.8054 H       
  59 H59           13.7733    16.2653    12.3567 H       
  60 H60           14.9999    17.5743    14.0627 H       
  61 H61           16.2692    16.3277    14.1136 H       
@<TRIPOS>BOND
   1    1    2 1
   2    3    4 1
   3    5    6 ar
   4    5   10 ar
   5    5   36 1
   6    6    7 ar
   7    6   37 1
   8    7    8 ar
   9    7   38 1
  10    8    9 ar
  11    8   11 ar
  12    9   10 ar
  13    9   14 ar
  14   10   33 1
  15   11   12 ar
  16   11   25 1
  17   12   13 ar
  18   12   39 1
  19   13   14 ar
  20   13   15 1
  21   15   16 am
  22   15   17 2
  23   16   18 1
  24   16   40 1
  25   18   19 1
  26   18   23 1
  27   18   41 1
  28   19   20 1
  29   19   24 1
  30   19   42 1
  31   20   21 1
  32   20   43 1
  33   20   44 1
  34   21   22 1
  35   21   45 1
  36   21   46 1
  37   22   23 1
  38   22   47 1
  39   22   48 1
  40   23   49 1
  41   23   50 1
  42   24   51 1
  43   25   26 1
  44   25   52 1
  45   25   53 1
  46   26   27 1
  47   26   31 1
  48   27   28 1
  49   27   54 1
  50   27   55 1
  51   28   29 1
  52   28   56 1
  53   28   57 1
  54   29   30 1
  55   29   32 1
  56   29   34 1
  57   30   31 1
  58   30   58 1
  59   30   59 1
  60   31   60 1
  61   31   61 1
  62   34   35 3

#	End of record

