#	Name: ASD01148662
#	Creating user name:	WinNT
#	Creation time:	15. 06. 2019 19:02

#	Modifying user name:	WinNT
#	Modification time:	15. 06. 2019 19:02

#	Program:	/corina/corina34_cracker 3.40 0067  02.08.2006

@<TRIPOS>MOLECULE
ASD01148662
  47   49    0    0    0
SMALL
NO_CHARGES


@<TRIPOS>ATOM
   1 N1             0.4990    -0.4345    -2.8186 N.am    
   2 N2             0.4279    -1.6050    -2.0521 N.am    
   3 C3            -0.7094    -1.9146    -1.3986 C.2     
   4 C4            -0.7843    -3.1471    -0.5916 C.ar    
   5 C5            -1.9260    -3.4188     0.1775 C.ar    
   6 C6            -1.9853    -4.5818     0.9333 C.ar    
   7 C7            -0.9248    -5.4656     0.9275 C.ar    
   8 C8             0.2049    -5.2007     0.1690 C.ar    
   9 C9             0.2785    -4.0531    -0.5929 C.ar    
  10 O10           -1.6739    -1.1780    -1.4744 O.2     
  11 C11           -3.2086    -4.8797     1.7615 C.3     
  12 Cl12           1.5304    -6.3218     0.1726 Cl      
  13 N13           -2.9942    -2.5260     0.1830 N.am    
  14 C14           -4.2345    -2.9572    -0.1207 C.2     
  15 O15           -4.4390    -4.1426    -0.3014 O.2     
  16 N16           -7.3703    -1.0846    -0.4697 N.2     
  17 N17           -6.6649    -2.2934    -0.4186 N.pl3   
  18 C18           -5.3404    -1.9948    -0.2335 C.2     
  19 C19           -5.2412    -0.6193    -0.1726 C.2     
  20 C20           -6.5240    -0.0951    -0.3236 C.2     
  21 C21           -7.2128    -3.5731    -0.5354 C.ar    
  22 C22           -8.5942    -3.7299    -0.5793 C.ar    
  23 C23           -9.1237    -5.0047    -0.6953 C.ar    
  24 C24           -8.2497    -6.0805    -0.7635 C.ar    
  25 C25           -6.8885    -5.8502    -0.7140 C.ar    
  26 N26           -6.4129    -4.6246    -0.6088 N.ar    
  27 Cl27          -9.6401    -2.3473    -0.4894 Cl      
  28 Br28          -6.9695     1.7426    -0.3194 Br      
  29 C29            1.6364    -0.1249    -3.4720 C.2     
  30 O30            1.6980     0.8903    -4.1369 O.2     
  31 O31            2.7043    -0.9405    -3.3881 O.3     
  32 C32            3.8954    -0.5441    -4.1179 C.3     
  33 H33           -0.2717     0.1511    -2.8823 H       
  34 H34            1.1973    -2.1926    -1.9916 H       
  35 H35           -0.9755    -6.3687     1.5176 H       
  36 H36            1.1587    -3.8533    -1.1860 H       
  37 H37           -3.9425    -5.4044     1.1498 H       
  38 H38           -2.9296    -5.5043     2.6101 H       
  39 H39           -3.6385    -3.9457     2.1235 H       
  40 H40           -2.8459    -1.5935     0.4054 H       
  41 H41           -4.3332    -0.0515    -0.0328 H       
  42 H42          -10.1922    -5.1578    -0.7315 H       
  43 H43           -8.6297    -7.0874    -0.8539 H       
  44 H44           -6.2046    -6.6844    -0.7668 H       
  45 H45            4.2379     0.4251    -3.7554 H       
  46 H46            4.6788    -1.2866    -3.9654 H       
  47 H47            3.6637    -0.4734    -5.1806 H       
@<TRIPOS>BOND
   1    1    2 1
   2    1   29 am
   3    1   33 1
   4    2    3 am
   5    2   34 1
   6    3    4 1
   7    3   10 2
   8    4    5 ar
   9    4    9 ar
  10    5    6 ar
  11    5   13 1
  12    6    7 ar
  13    6   11 1
  14    7    8 ar
  15    7   35 1
  16    8    9 ar
  17    8   12 1
  18    9   36 1
  19   11   37 1
  20   11   38 1
  21   11   39 1
  22   13   14 am
  23   13   40 1
  24   14   15 2
  25   14   18 1
  26   16   17 1
  27   16   20 2
  28   17   18 1
  29   17   21 1
  30   18   19 2
  31   19   20 1
  32   19   41 1
  33   20   28 1
  34   21   22 ar
  35   21   26 ar
  36   22   23 ar
  37   22   27 1
  38   23   24 ar
  39   23   42 1
  40   24   25 ar
  41   24   43 1
  42   25   26 ar
  43   25   44 1
  44   29   30 2
  45   29   31 1
  46   31   32 1
  47   32   45 1
  48   32   46 1
  49   32   47 1

#	End of record

