#	Name: ASD06660060
#	Creating user name:	WinNT
#	Creation time:	15. 06. 2019 21:07

#	Modifying user name:	WinNT
#	Modification time:	15. 06. 2019 21:07

#	Program:	/corina/corina34_cracker 3.40 0067  02.08.2006

@<TRIPOS>MOLECULE
ASD06660060
  69   72    0    0    0
SMALL
NO_CHARGES


@<TRIPOS>ATOM
   1 C1            -0.0184     1.5028     0.0103 C.2     
   2 C2             0.0021    -0.0041     0.0020 C.3     
   3 C3            -0.7241    -0.5171    -1.2431 C.3     
   4 O4             1.0197     2.1211     0.0037 O.2     
   5 O5            -1.1898     2.1580     0.0194 O.3     
   6 C6            -0.8113    -2.0207    -1.1900 C.ar    
   7 C7            -1.8983    -2.6278    -0.5884 C.ar    
   8 C8            -1.9814    -4.0054    -0.5380 C.ar    
   9 C9            -0.9713    -4.7813    -1.0925 C.ar    
  10 C10            0.1192    -4.1682    -1.6960 C.ar    
  11 C11            0.1932    -2.7901    -1.7480 C.ar    
  12 N12           -1.0519    -6.1748    -1.0428 N.3     
  13 C13            0.1154    -6.7927    -1.6847 C.3     
  14 C14           -0.0755    -8.3100    -1.7414 C.3     
  15 C15           -0.2456    -8.8516    -0.3193 C.3     
  16 C16           -1.4383    -8.1570     0.3437 C.3     
  17 C17           -1.2079    -6.6440     0.3399 C.3     
  18 C18           -0.4975   -10.3598    -0.3732 C.3     
  19 N19           -0.5413   -10.8966     0.9892 N.pl3   
  20 C20           -0.7596   -12.2539     1.1947 C.ar    
  21 C21           -0.9358   -13.0971     0.1020 C.ar    
  22 C22           -1.1521   -14.4454     0.3210 C.ar    
  23 C23           -1.1853   -14.9073     1.6304 C.ar    
  24 C24           -1.0027   -14.0145     2.6670 C.ar    
  25 N25           -0.7927   -12.7337     2.4282 N.ar    
  26 C26            2.0717    -0.5994     1.1419 C.2     
  27 C27            3.4721    -1.0732     1.1260 C.ar    
  28 C28            3.7624    -2.4397     1.2210 C.ar    
  29 C29            5.0893    -2.8310     1.2009 C.ar    
  30 C30            6.0774    -1.8690     1.0888 C.ar    
  31 N31            5.7740    -0.5881     1.0009 N.ar    
  32 C32            4.5263    -0.1667     1.0102 C.ar    
  33 O33            1.5355    -0.3233     2.1972 O.2     
  34 N34            1.3897    -0.4735    -0.0138 N.am    
  35 C35            2.6581    -3.4579     1.3424 C.3     
  36 F36            3.2124    -4.7400     1.4207 F       
  37 F37            1.9120    -3.2010     2.4976 F       
  38 F38            1.8247    -3.3778     0.2216 F       
  39 C39            4.2351     1.3079     0.9010 C.3     
  40 H40           -0.4983    -0.3791     0.8948 H       
  41 H41           -1.7288    -0.0959    -1.2772 H       
  42 H42           -0.1736    -0.2164    -2.1345 H       
  43 H43           -1.1523     3.1243     0.0245 H       
  44 H44           -2.6831    -2.0240    -0.1572 H       
  45 H45           -2.8305    -4.4790    -0.0677 H       
  46 H46            0.9062    -4.7685    -2.1281 H       
  47 H47            1.0385    -2.3127    -2.2213 H       
  48 H48            0.2226    -6.4021    -2.6967 H       
  49 H49            1.0115    -6.5606    -1.1092 H       
  50 H50           -0.9638    -8.5434    -2.3284 H       
  51 H51            0.7981    -8.7697    -2.2037 H       
  52 H52            0.6581    -8.6527     0.2568 H       
  53 H53           -2.3480    -8.3879    -0.2105 H       
  54 H54           -1.5385    -8.5072     1.3710 H       
  55 H55           -0.3056    -6.4127     0.9059 H       
  56 H56           -2.0619    -6.1455     0.7984 H       
  57 H57           -1.4485   -10.5517    -0.8701 H       
  58 H58            0.3065   -10.8428    -0.9284 H       
  59 H59           -0.4180   -10.3049     1.7478 H       
  60 H60           -0.9043   -12.7040    -0.9034 H       
  61 H61           -1.2925   -15.1238    -0.5075 H       
  62 H62           -1.3525   -15.9544     1.8353 H       
  63 H63           -1.0277   -14.3695     3.6867 H       
  64 H64            5.3511    -3.8763     1.2724 H       
  65 H65            7.1140    -2.1716     1.0732 H       
  66 H66            1.8177    -0.6938    -0.8559 H       
  67 H67            4.2052     1.7472     1.8981 H       
  68 H68            5.0172     1.7903     0.3147 H       
  69 H69            3.2722     1.4528     0.4112 H       
@<TRIPOS>BOND
   1    1    2 1
   2    1    4 2
   3    1    5 1
   4    2    3 1
   5    2   34 1
   6    2   40 1
   7    3    6 1
   8    3   41 1
   9    3   42 1
  10    5   43 1
  11    6    7 ar
  12    6   11 ar
  13    7    8 ar
  14    7   44 1
  15    8    9 ar
  16    8   45 1
  17    9   10 ar
  18    9   12 1
  19   10   11 ar
  20   10   46 1
  21   11   47 1
  22   12   13 1
  23   12   17 1
  24   13   14 1
  25   13   48 1
  26   13   49 1
  27   14   15 1
  28   14   50 1
  29   14   51 1
  30   15   16 1
  31   15   18 1
  32   15   52 1
  33   16   17 1
  34   16   53 1
  35   16   54 1
  36   17   55 1
  37   17   56 1
  38   18   19 1
  39   18   57 1
  40   18   58 1
  41   19   20 1
  42   19   59 1
  43   20   21 ar
  44   20   25 ar
  45   21   22 ar
  46   21   60 1
  47   22   23 ar
  48   22   61 1
  49   23   24 ar
  50   23   62 1
  51   24   25 ar
  52   24   63 1
  53   26   27 1
  54   26   33 2
  55   26   34 am
  56   27   28 ar
  57   27   32 ar
  58   28   29 ar
  59   28   35 1
  60   29   30 ar
  61   29   64 1
  62   30   31 ar
  63   30   65 1
  64   31   32 ar
  65   32   39 1
  66   34   66 1
  67   35   36 1
  68   35   37 1
  69   35   38 1
  70   39   67 1
  71   39   68 1
  72   39   69 1

#	End of record

