#	Name: ASD03091255
#	Creating user name:	WinNT
#	Creation time:	15. 06. 2019 20:30

#	Modifying user name:	WinNT
#	Modification time:	15. 06. 2019 20:30

#	Program:	/corina/corina34_cracker 3.40 0067  02.08.2006

@<TRIPOS>MOLECULE
ASD03091255
  51   55    0    0    0
SMALL
NO_CHARGES


@<TRIPOS>ATOM
   1 N1            -0.0077     1.2827     0.2081 N.2     
   2 C2             0.0215    -0.0231     0.1369 C.2     
   3 N3             1.1727    -0.7343    -0.0706 N.am    
   4 C4             2.3564    -0.0942    -0.2143 C.2     
   5 C5             2.3474     1.3743    -0.1383 C.ar    
   6 C6             3.5141     2.1233    -0.2744 C.ar    
   7 C7             3.4475     3.5040    -0.1948 C.ar    
   8 C8             2.2250     4.1409     0.0196 C.ar    
   9 C9             1.0735     3.4203     0.1549 C.ar    
  10 C10            1.1112     2.0245     0.0792 C.ar    
  11 O11            3.3896    -0.7108    -0.3991 O.2     
  12 N12            4.6124     4.2644    -0.3296 N.pl3   
  13 N13            5.7881     7.0143     1.4257 N.3     
  14 C14            4.6112     6.1591     1.2212 C.3     
  15 C15            4.5472     5.7256    -0.2461 C.3     
  16 C16            5.7380     6.3368    -0.9952 C.3     
  17 C17            7.0338     5.8520    -0.3328 C.3     
  18 C18            7.0291     6.2826     1.1366 C.3     
  19 C19            5.6647     7.8637    -0.8674 C.3     
  20 C20            5.6984     8.2379     0.6170 C.3     
  21 C21            1.1230    -2.1970    -0.1371 C.3     
  22 C22           -1.2469    -0.7649     0.2881 C.ar    
  23 C23           -1.6766    -1.6346    -0.7193 C.ar    
  24 C24           -2.8647    -2.3253    -0.5696 C.ar    
  25 C25           -3.6261    -2.1567     0.5724 C.ar    
  26 C26           -3.2056    -1.2974     1.5723 C.ar    
  27 C27           -2.0196    -0.6058     1.4397 C.ar    
  28 F28           -0.9333    -1.7988    -1.8354 F       
  29 H29            4.4613     1.6317    -0.4401 H       
  30 H30            2.1891     5.2186     0.0797 H       
  31 H31            0.1346     3.9276     0.3208 H       
  32 H32            5.4641     3.8246    -0.4785 H       
  33 H33            4.6873     5.2776     1.8579 H       
  34 H34            3.7090     6.7151     1.4758 H       
  35 H35            3.6153     6.0755    -0.6901 H       
  36 H36            5.7168     6.0353    -2.0425 H       
  37 H37            7.0911     4.7653    -0.3948 H       
  38 H38            7.8910     6.2944    -0.8403 H       
  39 H39            7.8856     6.9289     1.3289 H       
  40 H40            7.0882     5.4006     1.7743 H       
  41 H41            6.5165     8.3141    -1.3771 H       
  42 H42            4.7377     8.2234    -1.3138 H       
  43 H43            4.7887     8.7794     0.8763 H       
  44 H44            6.5658     8.8681     0.8136 H       
  45 H45            0.9873    -2.5093    -1.1726 H       
  46 H46            2.0554    -2.6101     0.2477 H       
  47 H47            0.2894    -2.5599     0.4641 H       
  48 H48           -3.1989    -2.9976    -1.3460 H       
  49 H49           -4.5539    -2.6981     0.6842 H       
  50 H50           -3.8059    -1.1711     2.4612 H       
  51 H51           -1.6915     0.0608     2.2235 H       
@<TRIPOS>BOND
   1    1    2 2
   2    1   10 1
   3    2    3 1
   4    2   22 1
   5    3    4 am
   6    3   21 1
   7    4    5 1
   8    4   11 2
   9    5    6 ar
  10    5   10 ar
  11    6    7 ar
  12    6   29 1
  13    7    8 ar
  14    7   12 1
  15    8    9 ar
  16    8   30 1
  17    9   10 ar
  18    9   31 1
  19   12   15 1
  20   12   32 1
  21   13   14 1
  22   13   18 1
  23   13   20 1
  24   14   15 1
  25   14   33 1
  26   14   34 1
  27   15   16 1
  28   15   35 1
  29   16   17 1
  30   16   19 1
  31   16   36 1
  32   17   18 1
  33   17   37 1
  34   17   38 1
  35   18   39 1
  36   18   40 1
  37   19   20 1
  38   19   41 1
  39   19   42 1
  40   20   43 1
  41   20   44 1
  42   21   45 1
  43   21   46 1
  44   21   47 1
  45   22   23 ar
  46   22   27 ar
  47   23   24 ar
  48   23   28 1
  49   24   25 ar
  50   24   48 1
  51   25   26 ar
  52   25   49 1
  53   26   27 ar
  54   26   50 1
  55   27   51 1

#	End of record

