#	Name: ASD01911945
#	Creating user name:	WinNT
#	Creation time:	15. 06. 2019 19:58

#	Modifying user name:	WinNT
#	Modification time:	15. 06. 2019 19:58

#	Program:	/corina/corina34_cracker 3.40 0067  02.08.2006

@<TRIPOS>MOLECULE
ASD01911945
  38   40    0    0    0
SMALL
NO_CHARGES


@<TRIPOS>ATOM
   1 C1             0.7757     1.1505    -0.1306 C.ar    
   2 C2             0.5673    -0.2267    -0.1275 C.ar    
   3 C3             1.6757    -1.0615    -0.2489 C.ar    
   4 N4             2.8771    -0.5200    -0.3620 N.ar    
   5 C5             3.0324     0.7888    -0.3607 C.ar    
   6 N6             2.0095     1.6122    -0.2479 N.ar    
   7 N7            -0.7201    -0.7570    -0.0053 N.pl3   
   8 C8            -0.9081    -2.1420    -0.0043 C.ar    
   9 C9            -1.3084    -4.1859    -1.2009 C.ar    
  10 C10           -1.2831    -4.8889    -0.0112 C.ar    
  11 C11           -1.0752    -4.2201     1.1885 C.ar    
  12 C12           -0.8875    -2.8449     1.1917 C.ar    
  13 N13           -1.0503    -4.9327     2.3918 N.am    
  14 C14           -1.5535    -4.3796     3.5131 C.2     
  15 C15           -1.6216    -5.1712     4.7631 C.ar    
  16 O16           -1.9513    -3.2314     3.4985 O.2     
  17 C17           -2.1425    -4.5938     5.9178 C.ar    
  18 C18           -2.2010    -5.3463     7.0814 C.ar    
  19 C19           -1.7363    -6.6503     7.0497 C.ar    
  20 C20           -1.2289    -7.1633     5.8624 C.ar    
  21 N21           -1.1902    -6.4274     4.7711 N.ar    
  22 F22           -0.7738    -8.4348     5.8259 F       
  23 C23           -1.1220    -2.8165    -1.2018 C.ar    
  24 C24           -1.8723     0.1388     0.1218 C.3     
  25 Cl25          -1.1552    -1.9376    -2.6985 Cl      
  26 H26           -0.0582     1.8312    -0.0431 H       
  27 H27            1.5559    -2.1348    -0.2504 H       
  28 H28            4.0272     1.1986    -0.4544 H       
  29 H29           -1.4699    -4.7084    -2.1322 H       
  30 H30           -1.4292    -5.9589    -0.0139 H       
  31 H31           -0.7254    -2.3231     2.1233 H       
  32 H32           -0.6708    -5.8250     2.4193 H       
  33 H33           -2.4961    -3.5734     5.9077 H       
  34 H34           -2.5998    -4.9244     7.9921 H       
  35 H35           -1.7677    -7.2623     7.9390 H       
  36 H36           -2.2605     0.3741    -0.8692 H       
  37 H37           -2.6492    -0.3498     0.7098 H       
  38 H38           -1.5644     1.0585     0.6192 H       
@<TRIPOS>BOND
   1    1    2 ar
   2    1    6 ar
   3    1   26 1
   4    2    3 ar
   5    2    7 1
   6    3    4 ar
   7    3   27 1
   8    4    5 ar
   9    5    6 ar
  10    5   28 1
  11    7    8 1
  12    7   24 1
  13    8   23 ar
  14    8   12 ar
  15    9   10 ar
  16    9   23 ar
  17    9   29 1
  18   10   11 ar
  19   10   30 1
  20   11   12 ar
  21   11   13 1
  22   12   31 1
  23   13   14 am
  24   13   32 1
  25   14   15 1
  26   14   16 2
  27   15   17 ar
  28   15   21 ar
  29   17   18 ar
  30   17   33 1
  31   18   19 ar
  32   18   34 1
  33   19   20 ar
  34   19   35 1
  35   20   21 ar
  36   20   22 1
  37   23   25 1
  38   24   36 1
  39   24   37 1
  40   24   38 1

#	End of record

