#	Name: ASD01140100
#	Creating user name:	WinNT
#	Creation time:	15. 06. 2019 18:59

#	Modifying user name:	WinNT
#	Modification time:	15. 06. 2019 18:59

#	Program:	/corina/corina34_cracker 3.40 0067  02.08.2006

@<TRIPOS>MOLECULE
ASD01140100
  24   25    0    0    0
SMALL
NO_CHARGES


@<TRIPOS>ATOM
   1 C1            -0.0188     1.5384     0.0105 C.3     
   2 C2             0.0021    -0.0041     0.0020 C.3     
   3 C3             1.5118    -0.3339     0.0140 C.3     
   4 C4             2.1568     0.9703     0.4462 C.2     
   5 O5             1.3723     1.9677    -0.0005 O.3     
   6 O6             3.1823     1.0902     1.0738 O.2     
   7 N7            -0.6538    -0.5372     1.1986 N.pl3   
   8 C8            -2.0368    -0.7328     1.2084 C.ar    
   9 C9            -2.6603    -1.2383     2.3422 C.ar    
  10 C10           -4.0279    -1.4300     2.3487 C.ar    
  11 C11           -4.7766    -1.1194     1.2283 C.ar    
  12 C12           -4.1591    -0.6160     0.0980 C.ar    
  13 C13           -2.7925    -0.4169     0.0865 C.ar    
  14 H14           -0.5323     1.9105    -0.8761 H       
  15 H15           -0.5152     1.9009     0.9107 H       
  16 H16           -0.4694    -0.3907    -0.9015 H       
  17 H17            1.7260    -1.1247     0.7330 H       
  18 H18            1.8505    -0.6178    -0.9824 H       
  19 H19           -0.1277    -0.7544     1.9840 H       
  20 H20           -2.0761    -1.4814     3.2174 H       
  21 H21           -4.5132    -1.8233     3.2297 H       
  22 H22           -5.8459    -1.2706     1.2359 H       
  23 H23           -4.7467    -0.3745    -0.7754 H       
  24 H24           -2.3109    -0.0234    -0.7965 H       
@<TRIPOS>BOND
   1    1    2 1
   2    1    5 1
   3    1   14 1
   4    1   15 1
   5    2    3 1
   6    2    7 1
   7    2   16 1
   8    3    4 1
   9    3   17 1
  10    3   18 1
  11    4    5 1
  12    4    6 2
  13    7    8 1
  14    7   19 1
  15    8    9 ar
  16    8   13 ar
  17    9   10 ar
  18    9   20 1
  19   10   11 ar
  20   10   21 1
  21   11   12 ar
  22   11   22 1
  23   12   13 ar
  24   12   23 1
  25   13   24 1

#	End of record

