#	Name: ASD01881638
#	Creating user name:	WinNT
#	Creation time:	15. 06. 2019 19:43

#	Modifying user name:	WinNT
#	Modification time:	15. 06. 2019 19:43

#	Program:	/corina/corina34_cracker 3.40 0067  02.08.2006

@<TRIPOS>MOLECULE
ASD01881638
  57   60    0    0    0
SMALL
NO_CHARGES


@<TRIPOS>ATOM
   1 N1            -0.0154     1.2839     0.0091 N.pl3   
   2 N2             0.0021    -0.0041     0.0020 N.2     
   3 N3             1.2033    -0.4649    -0.0119 N.2     
   4 C4             2.0741     0.5645    -0.0147 C.ar    
   5 C5             1.2843     1.7298    -0.0009 C.ar    
   6 C6             3.4670     0.6759    -0.0271 C.ar    
   7 C7             4.0484     1.9285    -0.0255 C.ar    
   8 C8             3.2560     3.0739    -0.0118 C.ar    
   9 C9             1.8924     2.9784    -0.0004 C.ar    
  10 O10            5.4033     2.0444    -0.0370 O.3     
  11 C11            5.9411     3.3683    -0.0346 C.3     
  12 C12            7.4465     3.2990    -0.0485 C.ar    
  13 C13            8.0718     2.0681    -0.0607 C.ar    
  14 C14            9.4589     2.0102    -0.0739 C.ar    
  15 C15           10.1693     3.1973    -0.0743 C.ar    
  16 C16            9.4739     4.4018    -0.0615 C.ar    
  17 N17            8.1497     4.4154    -0.0542 N.ar    
  18 N18           10.1751     5.6021    -0.0618 N.3     
  19 C19            9.2569     6.7480    -0.0473 C.3     
  20 C20           10.0581     8.0436     0.0988 C.3     
  21 C21           11.0387     8.1662    -1.0708 C.3     
  22 C22           11.9517     6.9372    -1.0922 C.3     
  23 C23           11.0955     5.6736    -1.2038 C.3     
  24 C24           -1.2133     2.1272     0.0196 C.3     
  25 C25           -1.6228     2.4135     1.4657 C.3     
  26 C26           -0.4829     3.1377     2.1848 C.3     
  27 C27           -2.8739     3.2942     1.4767 C.3     
  28 C28           -1.9211     1.0947     2.1819 C.3     
  29 Br29           4.5472    -0.8761    -0.0451 Br      
  30 H30            3.7236     4.0474    -0.0103 H       
  31 H31            1.2882     3.8735     0.0099 H       
  32 H32            5.5939     3.9031    -0.9187 H       
  33 H33            5.6098     3.8935     0.8612 H       
  34 H34            7.4879     1.1596    -0.0597 H       
  35 H35            9.9718     1.0598    -0.0833 H       
  36 H36           11.2493     3.1888    -0.0840 H       
  37 H37            8.6926     6.7730    -0.9795 H       
  38 H38            8.5678     6.6506     0.7916 H       
  39 H39            9.3775     8.8949     0.0938 H       
  40 H40           10.6119     8.0251     1.0375 H       
  41 H41           10.4835     8.2239    -2.0071 H       
  42 H42           11.6417     9.0658    -0.9479 H       
  43 H43           12.6239     6.9980    -1.9481 H       
  44 H44           12.5352     6.9013    -0.1723 H       
  45 H45           11.7418     4.7959    -1.2048 H       
  46 H46           10.5226     5.7037    -2.1306 H       
  47 H47           -1.0007     3.0667    -0.4906 H       
  48 H48           -2.0254     1.6113    -0.4926 H       
  49 H49           -0.2704     4.0772     1.6746 H       
  50 H50           -0.7746     3.3417     3.2150 H       
  51 H51            0.4084     2.5103     2.1769 H       
  52 H52           -3.6859     2.7782     0.9645 H       
  53 H53           -3.1656     3.4981     2.5070 H       
  54 H54           -2.6613     4.2337     0.9666 H       
  55 H55           -1.0299     0.4673     2.1740 H       
  56 H56           -2.2129     1.2987     3.2121 H       
  57 H57           -2.7332     0.5788     1.6696 H       
@<TRIPOS>BOND
   1    1    2 1
   2    1    5 1
   3    1   24 1
   4    2    3 2
   5    3    4 1
   6    4    5 ar
   7    4    6 ar
   8    5    9 ar
   9    6    7 ar
  10    6   29 1
  11    7    8 ar
  12    7   10 1
  13    8    9 ar
  14    8   30 1
  15    9   31 1
  16   10   11 1
  17   11   12 1
  18   11   32 1
  19   11   33 1
  20   12   13 ar
  21   12   17 ar
  22   13   14 ar
  23   13   34 1
  24   14   15 ar
  25   14   35 1
  26   15   16 ar
  27   15   36 1
  28   16   17 ar
  29   16   18 1
  30   18   19 1
  31   18   23 1
  32   19   20 1
  33   19   37 1
  34   19   38 1
  35   20   21 1
  36   20   39 1
  37   20   40 1
  38   21   22 1
  39   21   41 1
  40   21   42 1
  41   22   23 1
  42   22   43 1
  43   22   44 1
  44   23   45 1
  45   23   46 1
  46   24   25 1
  47   24   47 1
  48   24   48 1
  49   25   26 1
  50   25   27 1
  51   25   28 1
  52   26   49 1
  53   26   50 1
  54   26   51 1
  55   27   52 1
  56   27   53 1
  57   27   54 1
  58   28   55 1
  59   28   56 1
  60   28   57 1

#	End of record

