#	Name: ASD01230496
#	Creating user name:	WinNT
#	Creation time:	15. 06. 2019 19:14

#	Modifying user name:	WinNT
#	Modification time:	15. 06. 2019 19:14

#	Program:	/corina/corina34_cracker 3.40 0067  02.08.2006

@<TRIPOS>MOLECULE
ASD01230496
  40   43    0    0    0
SMALL
NO_CHARGES


@<TRIPOS>ATOM
   1 O1            -0.0915     1.5382     0.1401 O.3     
   2 C2            -0.0933     0.1195     0.3315 C.3     
   3 C3             0.8349    -0.2079     1.5090 C.3     
   4 O4             2.1491     0.2599     1.1865 O.3     
   5 C5             2.2415     1.5162     0.6699 C.ar    
   6 C6             1.1205     2.1545     0.1442 C.ar    
   7 C7             3.4655     2.1589     0.6701 C.ar    
   8 C8             3.5769     3.4473     0.1408 C.ar    
   9 C9             2.4495     4.0808    -0.3869 C.ar    
  10 C10            1.2325     3.4354    -0.3831 C.ar    
  11 C11            4.8818     4.1367     0.1399 C.2     
  12 O12            5.8621     3.5835     0.6002 O.2     
  13 N13            4.9870     5.3794    -0.3711 N.am    
  14 F14            0.3759     0.4337     2.6643 F       
  15 F15            0.8641    -1.5911     1.7164 F       
  16 F16           -1.3914    -0.3161     0.6189 F       
  17 F17            0.3719    -0.5134    -0.8261 F       
  18 S18            8.5521     3.6091    -2.2540 S.o2    
  19 N19            7.2814     4.3752    -1.5217 N.am    
  20 C20            7.4238     5.5132    -0.8825 C.2     
  21 N21            8.5953     6.1992    -0.7387 N.pl3   
  22 C22            9.8909     5.7191    -1.2256 C.3     
  23 C23            9.7239     4.9706    -2.5509 C.3     
  24 C24            6.1992     6.0729    -0.2805 C.2     
  25 C25            6.2589     7.2698     0.3632 C.2     
  26 C26            7.4877     7.9473     0.4387 C.2     
  27 C27            8.5972     7.4161    -0.0979 C.2     
  28 O28            9.0520     2.7202    -1.2645 O.2     
  29 O29            8.0197     3.1256    -3.4796 O.2     
  30 H30            4.3348     1.6658     1.0792 H       
  31 H31            2.5318     5.0764    -0.7974 H       
  32 H32            0.3618     3.9268    -0.7915 H       
  33 H33            4.2225     5.7931    -0.8017 H       
  34 H34           10.5566     6.5693    -1.3744 H       
  35 H35           10.3265     5.0474    -0.4858 H       
  36 H36           10.6844     4.5699    -2.8750 H       
  37 H37            9.3261     5.6441    -3.3100 H       
  38 H38            5.3724     7.6945     0.8105 H       
  39 H39            7.5397     8.9060     0.9333 H       
  40 H40            9.5252     7.9635    -0.0230 H       
@<TRIPOS>BOND
   1    1    2 1
   2    1    6 1
   3    2    3 1
   4    2   16 1
   5    2   17 1
   6    3    4 1
   7    3   14 1
   8    3   15 1
   9    4    5 1
  10    5    6 ar
  11    5    7 ar
  12    6   10 ar
  13    7    8 ar
  14    7   30 1
  15    8    9 ar
  16    8   11 1
  17    9   10 ar
  18    9   31 1
  19   10   32 1
  20   11   12 2
  21   11   13 am
  22   13   24 1
  23   13   33 1
  24   18   19 am
  25   18   23 1
  26   18   28 2
  27   18   29 2
  28   19   20 2
  29   20   21 1
  30   20   24 1
  31   21   22 1
  32   21   27 1
  33   22   23 1
  34   22   34 1
  35   22   35 1
  36   23   36 1
  37   23   37 1
  38   24   25 2
  39   25   26 1
  40   25   38 1
  41   26   27 2
  42   26   39 1
  43   27   40 1

#	End of record

