#	Name: ASD00311473
#	Creating user name:	WinNT
#	Creation time:	15. 06. 2019 18:34

#	Modifying user name:	WinNT
#	Modification time:	15. 06. 2019 18:34

#	Program:	/corina/corina34_cracker 3.40 0067  02.08.2006

@<TRIPOS>MOLECULE
ASD00311473
  46   50    0    0    0
SMALL
NO_CHARGES


@<TRIPOS>ATOM
   1 C1            -0.0167     1.3780     0.0096 C.2     
   2 C2             0.0021    -0.0041     0.0020 C.2     
   3 C3             1.2582    -0.6767    -0.0136 C.2     
   4 C4             2.4321     0.0678    -0.0208 C.2     
   5 C5             2.3575     1.4765    -0.0126 C.2     
   6 N6             1.1646     2.0909     0.0022 N.am    
   7 C7            -1.3434    -0.5751     0.0123 C.2     
   8 C8            -2.3227     0.3263     0.0268 C.2     
   9 S9            -1.6794     1.9564     0.0358 S.3     
  10 O10            3.3819     2.1390    -0.0188 O.2     
  11 C11            5.8241    -1.1329    -1.1053 C.ar    
  12 C12            4.6085    -0.4837    -1.1325 C.ar    
  13 C13            3.7467    -0.6104    -0.0366 C.ar    
  14 C14            4.1636    -1.3965     1.0443 C.ar    
  15 C15            5.3965    -2.0101     0.9880 C.ar    
  16 N16            6.1786    -1.8647    -0.0654 N.ar    
  17 C17           -2.0693    -4.7662    -0.0059 C.ar    
  18 C18           -2.7058    -3.9523     0.9313 C.ar    
  19 C19           -2.4709    -2.5954     0.9375 C.ar    
  20 C20           -1.5960    -2.0346     0.0062 C.ar    
  21 C21           -0.9593    -2.8491    -0.9312 C.ar    
  22 C22           -1.1947    -4.2059    -0.9370 C.ar    
  23 C23           -2.3177    -6.2277    -0.0084 C.ar    
  24 C24           -2.6582    -6.8805    -1.1977 C.ar    
  25 C25           -2.8886    -8.2464    -1.1907 C.ar    
  26 C26           -2.7826    -8.9606    -0.0118 C.ar    
  27 C27           -2.4460    -8.3179     1.1662 C.ar    
  28 C28           -2.2076    -6.9582     1.1727 C.ar    
  29 O29           -2.7630    -6.1774    -2.3554 O.3     
  30 O30            1.3078    -2.0288    -0.0209 O.3     
  31 H31            1.1320     3.0604     0.0077 H       
  32 H32           -3.3754     0.0847     0.0360 H       
  33 H33            6.4939    -1.0449    -1.9479 H       
  34 H34            4.3252     0.1137    -1.9865 H       
  35 H35            3.5289    -1.5198     1.9094 H       
  36 H36            5.7270    -2.6185     1.8169 H       
  37 H37           -3.3832    -4.3863     1.6519 H       
  38 H38           -2.9640    -1.9652     1.6629 H       
  39 H39           -0.2819    -2.4154    -1.6519 H       
  40 H40           -0.7017    -4.8364    -1.6622 H       
  41 H41           -3.1517    -8.7538    -2.1071 H       
  42 H42           -2.9637   -10.0253    -0.0104 H       
  43 H43           -2.3652    -8.8827     2.0831 H       
  44 H44           -1.9404    -6.4606     2.0932 H       
  45 H45           -1.9377    -6.1188    -2.8560 H       
  46 H46            2.2050    -2.3893    -0.0315 H       
@<TRIPOS>BOND
   1    1    2 2
   2    1    6 1
   3    1    9 1
   4    2    3 1
   5    2    7 1
   6    3    4 2
   7    3   30 1
   8    4    5 1
   9    4   13 1
  10    5    6 am
  11    5   10 2
  12    6   31 1
  13    7    8 2
  14    7   20 1
  15    8    9 1
  16    8   32 1
  17   11   12 ar
  18   11   16 ar
  19   11   33 1
  20   12   13 ar
  21   12   34 1
  22   13   14 ar
  23   14   15 ar
  24   14   35 1
  25   15   16 ar
  26   15   36 1
  27   17   18 ar
  28   17   22 ar
  29   17   23 1
  30   18   19 ar
  31   18   37 1
  32   19   20 ar
  33   19   38 1
  34   20   21 ar
  35   21   22 ar
  36   21   39 1
  37   22   40 1
  38   23   24 ar
  39   23   28 ar
  40   24   25 ar
  41   24   29 1
  42   25   26 ar
  43   25   41 1
  44   26   27 ar
  45   26   42 1
  46   27   28 ar
  47   27   43 1
  48   28   44 1
  49   29   45 1
  50   30   46 1

#	End of record

