#	Name: ASD03740138
#	Creating user name:	WinNT
#	Creation time:	15. 06. 2019 20:46

#	Modifying user name:	WinNT
#	Modification time:	15. 06. 2019 20:46

#	Program:	/corina/corina34_cracker 3.40 0067  02.08.2006

@<TRIPOS>MOLECULE
ASD03740138
  33   35    0    0    0
SMALL
NO_CHARGES


@<TRIPOS>ATOM
   1 C1             0.0037     1.3556     0.0299 C.ar    
   2 C2            -0.0188    -0.0391    -0.0431 C.ar    
   3 C3            -1.1826    -0.7357    -0.0581 C.ar    
   4 C4            -2.4107    -0.0426     0.0018 C.ar    
   5 C5            -2.3863     1.4265     0.0792 C.ar    
   6 C6            -1.1382     2.0851     0.0952 C.ar    
   7 N7            -3.6812    -0.4030     0.0062 N.2     
   8 N8            -4.4792     0.7443     0.0817 N.pl3   
   9 C9            -3.7055     1.8373     0.1253 C.2     
  10 C10           -6.7042    -1.3611    -1.0018 C.ar    
  11 C11           -6.4707    -0.0012    -1.0875 C.ar    
  12 C12           -6.7206     0.6705    -2.2697 C.ar    
  13 C13           -7.2042    -0.0173    -3.3667 C.ar    
  14 C14           -7.4381    -1.3782    -3.2815 C.ar    
  15 C15           -7.1878    -2.0499    -2.0982 C.ar    
  16 C16           -5.9439     0.7494     0.1084 C.3     
  17 Cl17          -8.0460    -2.2427    -4.6588 Cl      
  18 C18            1.2858    -0.7907    -0.1075 C.3     
  19 N19            1.3077     2.0556     0.0425 N.pl3   
  20 O20            2.2538     1.5702     0.6364 O.2     
  21 O21            1.4347     3.1172    -0.5411 O.2     
  22 H22           -1.1696    -1.8141    -0.1158 H       
  23 H23           -1.0926     3.1626     0.1519 H       
  24 H24           -4.0513     2.8587     0.1862 H       
  25 H25           -6.5045    -1.8861    -0.0794 H       
  26 H26           -6.5383     1.7329    -2.3359 H       
  27 H27           -7.3997     0.5076    -4.2901 H       
  28 H28           -7.3698    -3.1124    -2.0312 H       
  29 H29           -6.2924     0.2677     1.0220 H       
  30 H30           -6.3042     1.7777     0.0796 H       
  31 H31            1.6701    -0.9386     0.9017 H       
  32 H32            1.1242    -1.7593    -0.5804 H       
  33 H33            2.0068    -0.2176    -0.6904 H       
@<TRIPOS>BOND
   1    1    2 ar
   2    1   19 1
   3    1    6 ar
   4    2    3 ar
   5    2   18 1
   6    3    4 ar
   7    3   22 1
   8    4    5 ar
   9    4    7 2
  10    5    6 ar
  11    5    9 2
  12    6   23 1
  13    7    8 1
  14    8    9 1
  15    8   16 1
  16    9   24 1
  17   10   11 ar
  18   10   15 ar
  19   10   25 1
  20   11   12 ar
  21   11   16 1
  22   12   13 ar
  23   12   26 1
  24   13   14 ar
  25   13   27 1
  26   14   15 ar
  27   14   17 1
  28   15   28 1
  29   16   29 1
  30   16   30 1
  31   18   31 1
  32   18   32 1
  33   18   33 1
  34   19   20 2
  35   19   21 2

#	End of record

