#	Name: ASD03930044
#	Creating user name:	WinNT
#	Creation time:	15. 06. 2019 20:47

#	Modifying user name:	WinNT
#	Modification time:	15. 06. 2019 20:47

#	Program:	/corina/corina34_cracker 3.40 0067  02.08.2006

@<TRIPOS>MOLECULE
ASD03930044
  24   26    0    0    0
SMALL
NO_CHARGES


@<TRIPOS>ATOM
   1 C1            -0.0166     1.3743     0.0096 C.ar    
   2 C2             0.0021    -0.0041     0.0020 C.ar    
   3 C3            -1.1754    -0.7403    -0.0017 C.ar    
   4 C4            -2.3864    -0.1117     0.0033 C.ar    
   5 C5            -2.4137     1.2999     0.0350 C.ar    
   6 C6            -1.2467     2.0457     0.0308 C.ar    
   7 C7            -3.6664    -0.8964    -0.0555 C.3     
   8 N8            -4.7792    -0.2308     0.6275 N.am    
   9 S9            -5.2019     1.3189     0.1607 S.o2    
  10 C10           -3.6207     2.1395     0.0999 C.2     
  11 S11           -1.6470     3.7573     0.0447 S.3     
  12 C12           -3.3702     3.4273     0.1002 C.2     
  13 O13           -5.6840     1.2382    -1.1736 O.2     
  14 O14           -5.9326     1.8957     1.2343 O.2     
  15 C15           -5.5092    -0.9112     1.7001 C.3     
  16 F16            1.1405     2.0716     0.0023 F       
  17 H17            0.9503    -0.5211    -0.0014 H       
  18 H18           -1.1322    -1.8195    -0.0091 H       
  19 H19           -3.9368    -1.0484    -1.1004 H       
  20 H20           -3.5027    -1.8697     0.4071 H       
  21 H21           -4.1321     4.1920     0.1323 H       
  22 H22           -5.0350    -0.6934     2.6571 H       
  23 H23           -6.5407    -0.5595     1.7174 H       
  24 H24           -5.4949    -1.9867     1.5239 H       
@<TRIPOS>BOND
   1    1    2 ar
   2    1   16 1
   3    1    6 ar
   4    2    3 ar
   5    2   17 1
   6    3    4 ar
   7    3   18 1
   8    4    5 ar
   9    4    7 1
  10    5    6 ar
  11    5   10 1
  12    6   11 1
  13    7    8 1
  14    7   19 1
  15    7   20 1
  16    8    9 am
  17    8   15 1
  18    9   10 1
  19    9   13 2
  20    9   14 2
  21   10   12 2
  22   11   12 1
  23   12   21 1
  24   15   22 1
  25   15   23 1
  26   15   24 1

#	End of record

