#	Name: ASD00069391
#	Creating user name:	WinNT
#	Creation time:	15. 06. 2019 18:29

#	Modifying user name:	WinNT
#	Modification time:	15. 06. 2019 18:29

#	Program:	/corina/corina34_cracker 3.40 0067  02.08.2006

@<TRIPOS>MOLECULE
ASD00069391
  39   40    0    0    0
SMALL
NO_CHARGES


@<TRIPOS>ATOM
   1 C1             0.4214     1.0256     0.2257 C.ar    
   2 C2             0.3054    -0.3643     0.2701 C.ar    
   3 N3             1.4085    -1.1019     0.3545 N.ar    
   4 C4             2.6019    -0.5293     0.3961 C.ar    
   5 N5             2.7433     0.7875     0.3557 N.ar    
   6 C6             1.6864     1.5837     0.2716 C.ar    
   7 Cl7            1.8878     3.3071     0.2190 Cl      
   8 N8            -0.9414    -0.9670     0.2272 N.3     
   9 C9            -0.8213    -2.4294     0.2865 C.3     
  10 C10           -1.8075    -0.4615     1.3000 C.3     
  11 C11           -3.2156    -1.0375     1.1347 C.3     
  12 C12           -3.1459    -2.5662     1.1872 C.3     
  13 C13           -2.2000    -3.0641     0.0909 C.3     
  14 N14            3.7298    -1.3264     0.4845 N.pl3   
  15 C15            5.0590    -0.7122     0.5317 C.3     
  16 C16           -2.6286    -3.0007     2.5343 C.2     
  17 O17           -1.4573    -3.2839     2.6715 O.2     
  18 N18           -3.4675    -3.0746     3.5865 N.am    
  19 N19           -4.4865    -3.1265     0.9707 N.3     
  20 C20           -4.4558    -4.5947     1.0082 C.3     
  21 H21           -0.4559     1.6511     0.1527 H       
  22 H22           -0.1493    -2.7708    -0.5009 H       
  23 H23           -0.4212    -2.7219     1.2573 H       
  24 H24           -1.4028    -0.7632     2.2660 H       
  25 H25           -1.8518     0.6264     1.2487 H       
  26 H26           -3.8542    -0.6744     1.9400 H       
  27 H27           -3.6264    -0.7247     0.1747 H       
  28 H28           -2.5948    -2.7832    -0.8855 H       
  29 H29           -2.1129    -4.1490     0.1505 H       
  30 H30            3.6402    -2.2918     0.5151 H       
  31 H31            5.2208    -0.1263    -0.3731 H       
  32 H32            5.1277    -0.0612     1.4032 H       
  33 H33            5.8174    -1.4921     0.6000 H       
  34 H34           -4.3875    -2.7809     3.4949 H       
  35 H35           -3.1514    -3.4215     4.4354 H       
  36 H36           -5.1440    -2.7613     1.6433 H       
  37 H37           -4.1107    -4.9260     1.9876 H       
  38 H38           -5.4573    -4.9839     0.8251 H       
  39 H39           -3.7765    -4.9636     0.2397 H       
@<TRIPOS>BOND
   1    1    2 ar
   2    1    6 ar
   3    1   21 1
   4    2    3 ar
   5    2    8 1
   6    3    4 ar
   7    4    5 ar
   8    4   14 1
   9    5    6 ar
  10    6    7 1
  11    8    9 1
  12    8   10 1
  13    9   13 1
  14    9   22 1
  15    9   23 1
  16   10   11 1
  17   10   24 1
  18   10   25 1
  19   11   12 1
  20   11   26 1
  21   11   27 1
  22   12   13 1
  23   12   16 1
  24   12   19 1
  25   13   28 1
  26   13   29 1
  27   14   15 1
  28   14   30 1
  29   15   31 1
  30   15   32 1
  31   15   33 1
  32   16   17 2
  33   16   18 am
  34   18   34 1
  35   18   35 1
  36   19   20 1
  37   19   36 1
  38   20   37 1
  39   20   38 1
  40   20   39 1

#	End of record

