#	Name: ASD00071032
#	Creating user name:	WinNT
#	Creation time:	15. 06. 2019 18:30

#	Modifying user name:	WinNT
#	Modification time:	15. 06. 2019 18:30

#	Program:	/corina/corina34_cracker 3.40 0067  02.08.2006

@<TRIPOS>MOLECULE
ASD00071032
  36   38    0    0    0
SMALL
NO_CHARGES


@<TRIPOS>ATOM
   1 N1             1.8361     1.2411    -1.2023 N.ar    
   2 C2             1.6413    -0.0612    -1.1900 C.ar    
   3 C3             1.3756    -0.7522     0.0012 C.ar    
   4 C4             1.3147    -0.0732     1.1805 C.ar    
   5 C5             1.5242     1.3212     1.1606 C.ar    
   6 C6             1.4759     2.0812     2.3388 C.ar    
   7 C7             1.6840     3.4283     2.2815 C.ar    
   8 C8             1.9443     4.0594     1.0655 C.ar    
   9 C9             1.9977     3.3502    -0.0953 C.ar    
  10 C10            1.7884     1.9609    -0.0750 C.ar    
  11 N11            1.6998    -0.7662    -2.3834 N.pl3   
  12 C12            1.1574    -2.2431    -0.0236 C.3     
  13 C13            1.0276    -2.7553     1.3878 C.ar    
  14 C14           -0.2218    -2.8660     1.9724 C.ar    
  15 C15           -0.3402    -3.3363     3.2694 C.ar    
  16 C16            0.7886    -3.6957     3.9821 C.ar    
  17 C17            2.0374    -3.5870     3.4018 C.ar    
  18 C18            2.1595    -3.1216     2.1002 C.ar    
  19 O19            3.3872    -3.0191     1.5266 O.3     
  20 C20            4.5086    -3.4142     2.3192 C.3     
  21 F21           -1.3261    -2.5149     1.2777 F       
  22 F22            1.6370     4.1598     3.4164 F       
  23 H23            1.1109    -0.5895     2.1070 H       
  24 H24            1.2748     1.6026     3.2859 H       
  25 H25            2.1056     5.1271     1.0443 H       
  26 H26            2.2000     3.8539    -1.0290 H       
  27 H27            1.8013    -0.2910    -3.2229 H       
  28 H28            1.6392    -1.7343    -2.3782 H       
  29 H29            0.2456    -2.4677    -0.5769 H       
  30 H30            2.0054    -2.7264    -0.5089 H       
  31 H31           -1.3157    -3.4221     3.7250 H       
  32 H32            0.6940    -4.0616     4.9938 H       
  33 H33            2.9185    -3.8678     3.9598 H       
  34 H34            4.5531    -2.7991     3.2180 H       
  35 H35            4.4034    -4.4620     2.6009 H       
  36 H36            5.4248    -3.2830     1.7435 H       
@<TRIPOS>BOND
   1    1    2 ar
   2    1   10 ar
   3    2    3 ar
   4    2   11 1
   5    3    4 ar
   6    3   12 1
   7    4    5 ar
   8    4   23 1
   9    5    6 ar
  10    5   10 ar
  11    6    7 ar
  12    6   24 1
  13    7    8 ar
  14    7   22 1
  15    8    9 ar
  16    8   25 1
  17    9   10 ar
  18    9   26 1
  19   11   27 1
  20   11   28 1
  21   12   13 1
  22   12   29 1
  23   12   30 1
  24   13   14 ar
  25   13   18 ar
  26   14   15 ar
  27   14   21 1
  28   15   16 ar
  29   15   31 1
  30   16   17 ar
  31   16   32 1
  32   17   18 ar
  33   17   33 1
  34   18   19 1
  35   19   20 1
  36   20   34 1
  37   20   35 1
  38   20   36 1

#	End of record

