#	Name: ASD05170106
#	Creating user name:	WinNT
#	Creation time:	15. 06. 2019 20:57

#	Modifying user name:	WinNT
#	Modification time:	15. 06. 2019 20:57

#	Program:	/corina/corina34_cracker 3.40 0067  02.08.2006

@<TRIPOS>MOLECULE
ASD05170106
  44   47    0    0    0
SMALL
NO_CHARGES


@<TRIPOS>ATOM
   1 C1            -0.2251     1.4612    -1.1273 C.ar    
   2 C2            -0.2367     0.0861    -1.2815 C.ar    
   3 C3             0.9603    -0.6058    -1.1453 C.ar    
   4 C4             2.1168     0.0948    -0.8621 C.ar    
   5 N5             2.0950     1.4068    -0.7208 N.ar    
   6 C6             0.9754     2.0996    -0.8432 C.ar    
   7 O7             0.9995     3.4476    -0.6897 O.3     
   8 C8             2.2646     4.0450    -0.3987 C.3     
   9 C9             2.0966     5.5365    -0.2635 C.2     
  10 C10            0.8949     6.2457    -0.3929 C.2     
  11 N11            3.0492     6.3998     0.0019 N.2     
  12 C12            1.2321     7.5541    -0.1924 C.2     
  13 C13            0.4246     8.7834    -0.1930 C.2     
  14 N14            2.5859     7.5867     0.0603 N.pl3   
  15 C15            3.2729     8.8497     0.3564 C.3     
  16 C16            2.5573     9.9929    -0.3617 C.3     
  17 N17            1.1093     9.9527    -0.1718 N.am    
  18 O18           -0.7912     8.7523    -0.2117 O.2     
  19 C19            3.2515     9.1013     1.8655 C.3     
  20 Cl20           1.0021    -2.3316    -1.3282 Cl      
  21 C21            0.4147    11.1477     0.0413 C.ar    
  22 C22            0.3179    12.0869    -0.9791 C.ar    
  23 C23           -0.3674    13.2695    -0.7738 C.ar    
  24 C24           -0.9604    13.5262     0.4457 C.ar    
  25 C25           -0.8691    12.5896     1.4774 C.ar    
  26 C26           -0.1820    11.3931     1.2680 C.ar    
  27 C27           -1.4830    12.8535     2.7439 C.1     
  28 N28           -1.9700    13.0628     3.7486 N.1     
  29 H29           -1.1367     2.0310    -1.2309 H       
  30 H30           -1.1552    -0.4373    -1.5024 H       
  31 H31            3.0502    -0.4377    -0.7547 H       
  32 H32            2.6529     3.6370     0.5345 H       
  33 H33            2.9627     3.8298    -1.2076 H       
  34 H34           -0.0851     5.8449    -0.6057 H       
  35 H35            4.3051     8.7922     0.0109 H       
  36 H36            2.9362    10.9410     0.0200 H       
  37 H37            2.7764     9.9315    -1.4277 H       
  38 H38            3.7586     8.2834     2.3774 H       
  39 H39            3.7618    10.0392     2.0847 H       
  40 H40            2.2189     9.1604     2.2093 H       
  41 H41            0.7801    11.8919    -1.9355 H       
  42 H42           -0.4387    13.9953    -1.5703 H       
  43 H43           -1.4946    14.4517     0.6023 H       
  44 H44           -0.1120    10.6627     2.0605 H       
@<TRIPOS>BOND
   1    1    2 ar
   2    1    6 ar
   3    1   29 1
   4    2    3 ar
   5    2   30 1
   6    3    4 ar
   7    3   20 1
   8    4    5 ar
   9    4   31 1
  10    5    6 ar
  11    6    7 1
  12    7    8 1
  13    8    9 1
  14    8   32 1
  15    8   33 1
  16    9   11 2
  17    9   10 1
  18   10   12 2
  19   10   34 1
  20   11   14 1
  21   12   14 1
  22   12   13 1
  23   13   17 am
  24   13   18 2
  25   14   15 1
  26   15   16 1
  27   15   19 1
  28   15   35 1
  29   16   17 1
  30   16   36 1
  31   16   37 1
  32   17   21 1
  33   19   38 1
  34   19   39 1
  35   19   40 1
  36   21   22 ar
  37   21   26 ar
  38   22   23 ar
  39   22   41 1
  40   23   24 ar
  41   23   42 1
  42   24   25 ar
  43   24   43 1
  44   25   26 ar
  45   25   27 1
  46   26   44 1
  47   27   28 3

#	End of record

