#	Name: ASD08178003
#	Creating user name:	WinNT
#	Creation time:	15. 06. 2019 21:18

#	Modifying user name:	WinNT
#	Modification time:	15. 06. 2019 21:18

#	Program:	/corina/corina34_cracker 3.40 0067  02.08.2006

@<TRIPOS>MOLECULE
ASD08178003
  28   29    0    0    0
SMALL
NO_CHARGES


@<TRIPOS>ATOM
   1 C1            -0.0187     1.5258     0.0104 C.3     
   2 C2             0.0021    -0.0041     0.0020 C.3     
   3 C3            -1.4333    -0.5336     0.0129 C.3     
   4 C4            -1.4126    -2.0635     0.0045 C.3     
   5 S5             2.3835     2.3993     1.4189 S.3     
   6 C6             3.6922     2.8924     0.3421 C.2     
   7 N7             3.2720     2.7484    -0.8822 N.2     
   8 N8             2.0992     2.3169    -1.0510 N.2     
   9 C9             1.3951     2.0474    -0.0003 C.2     
  10 N10            4.9424     3.3509     0.7299 N.pl3   
  11 S11           -3.7875    -2.9524     1.4490 S.3     
  12 C12           -5.1166    -3.4340     0.3922 C.2     
  13 N13           -4.7198    -3.2768    -0.8383 N.2     
  14 N14           -3.5504    -2.8434    -1.0247 N.2     
  15 C15           -2.8264    -2.5851     0.0152 C.2     
  16 N16           -6.3592    -3.8967     0.7989 N.pl3   
  17 H17           -0.5459     1.8868    -0.8726 H       
  18 H18           -0.5289     1.8773     0.9072 H       
  19 H19            0.5123    -0.3556    -0.8948 H       
  20 H20            0.5293    -0.3651     0.8851 H       
  21 H21           -1.9435    -0.1821     0.9097 H       
  22 H22           -1.9605    -0.1726    -0.8702 H       
  23 H23           -0.9024    -2.4150    -0.8923 H       
  24 H24           -0.8854    -2.4246     0.8875 H       
  25 H25            5.1616     3.4236     1.6720 H       
  26 H26            5.5976     3.5989     0.0590 H       
  27 H27           -6.5604    -3.9795     1.7442 H       
  28 H28           -7.0271    -4.1376     0.1380 H       
@<TRIPOS>BOND
   1    1    2 1
   2    1    9 1
   3    1   17 1
   4    1   18 1
   5    2    3 1
   6    2   19 1
   7    2   20 1
   8    3    4 1
   9    3   21 1
  10    3   22 1
  11    4   15 1
  12    4   23 1
  13    4   24 1
  14    5    6 1
  15    5    9 1
  16    6    7 2
  17    6   10 1
  18    7    8 1
  19    8    9 2
  20   10   25 1
  21   10   26 1
  22   11   12 1
  23   11   15 1
  24   12   13 2
  25   12   16 1
  26   13   14 1
  27   14   15 2
  28   16   27 1
  29   16   28 1

#	End of record

