#	Name: ASD01478027
#	Creating user name:	WinNT
#	Creation time:	15. 06. 2019 19:21

#	Modifying user name:	WinNT
#	Modification time:	15. 06. 2019 19:21

#	Program:	/corina/corina34_cracker 3.40 0067  02.08.2006

@<TRIPOS>MOLECULE
ASD01478027
  76   78    0    0    0
SMALL
NO_CHARGES


@<TRIPOS>ATOM
   1 C1            -0.5259     2.8688    -1.3420 C.3     
   2 C2            -0.6379     1.3983    -1.7956 C.3     
   3 C3             0.9276     3.2122    -1.1751 C.3     
   4 O4             1.5330     3.7397    -2.3788 O.3     
   5 C5             1.1462     3.0886    -3.6086 C.3     
   6 O6             1.0536     1.6984    -3.4831 O.3     
   7 C7            -0.2896     1.2490    -3.2127 C.3     
   8 C8            -1.7570     4.2510     0.1646 C.2     
   9 O9            -1.2157     3.0419    -0.0762 O.3     
  10 N10           -2.4112     4.4783     1.3208 N.am    
  11 O11           -1.6557     5.1372    -0.6605 O.2     
  12 C12           -4.3922     5.8643     0.9516 C.3     
  13 C13           -3.0002     5.7939     1.5827 C.3     
  14 C14           -3.1135     6.0103     3.0931 C.3     
  15 C15           -3.6115     7.4305     3.3689 C.3     
  16 N16           -3.5955     7.6820     4.8120 N.am    
  17 S17           -5.0166     7.9314     5.6248 S.o2    
  18 C18           -5.5887     6.3566     6.1704 C.ar    
  19 C19           -5.2041     5.8732     7.4073 C.ar    
  20 C20           -5.6513     4.6389     7.8373 C.ar    
  21 C21           -6.4869     3.8843     7.0269 C.ar    
  22 C22           -6.8714     4.3716     5.7862 C.ar    
  23 C23           -6.4260     5.6090     5.3631 C.ar    
  24 O24           -4.6857     8.6657     6.7955 O.2     
  25 O25           -5.9556     8.3875     4.6608 O.2     
  26 C26           -2.3223     7.7129     5.5361 C.3     
  27 C27           -1.5074     8.9261     5.0833 C.3     
  28 C28           -2.2567    10.2090     5.4489 C.3     
  29 C29           -0.1455     8.9146     5.7804 C.3     
  30 O30           -4.0362     5.0670     3.6416 O.3     
  31 O31           -6.9278     2.6695     7.4474 O.3     
  32 C32           -7.7854     1.9480     6.5608 C.3     
  33 C33           -4.2691     5.7740    -0.5476 C.ar    
  34 C34           -4.3022     4.5405    -1.1708 C.ar    
  35 C35           -4.1893     4.4576    -2.5460 C.ar    
  36 C36           -4.0437     5.6083    -3.2981 C.ar    
  37 C37           -4.0115     6.8418    -2.6751 C.ar    
  38 C38           -4.1288     6.9250    -1.3002 C.ar    
  39 H39           -0.9709     3.5187    -2.0954 H       
  40 H40            0.0371     0.7875    -1.1960 H       
  41 H41           -1.6606     1.0543    -1.6414 H       
  42 H42            1.0230     3.9535    -0.3817 H       
  43 H43            1.4674     2.3133    -0.8771 H       
  44 H44            0.1778     3.4782    -3.9227 H       
  45 H45            1.8827     3.3236    -4.3770 H       
  46 H46           -0.3756     0.1987    -3.4910 H       
  47 H47           -0.9872     1.8326    -3.8134 H       
  48 H48           -2.4921     3.7708     1.9795 H       
  49 H49           -4.9991     5.0359     1.3169 H       
  50 H50           -4.8659     6.8082     1.2211 H       
  51 H51           -2.3660     6.5683     1.1513 H       
  52 H52           -2.1355     5.8723     3.5543 H       
  53 H53           -2.9610     8.1473     2.8679 H       
  54 H54           -4.6288     7.5382     2.9925 H       
  55 H55           -4.5532     6.4609     8.0377 H       
  56 H56           -5.3503     4.2615     8.8035 H       
  57 H57           -7.5219     3.7860     5.1534 H       
  58 H58           -6.7250     5.9888     4.3974 H       
  59 H59           -2.5148     7.7835     6.6066 H       
  60 H60           -1.7631     6.8009     5.3268 H       
  61 H61           -1.3634     8.8846     4.0037 H       
  62 H62           -1.6762    11.0733     5.1264 H       
  63 H63           -3.2270    10.2171     4.9523 H       
  64 H64           -2.4008    10.2504     6.5286 H       
  65 H65            0.3883     8.0006     5.5199 H       
  66 H66            0.4350     9.7789     5.4578 H       
  67 H67           -0.2896     8.9561     6.8600 H       
  68 H68           -4.9291     5.1322     3.2762 H       
  69 H69           -8.0634     0.9980     7.0172 H       
  70 H70           -8.6835     2.5344     6.3667 H       
  71 H71           -7.2634     1.7613     5.6223 H       
  72 H72           -4.4159     3.6415    -0.5832 H       
  73 H73           -4.2144     3.4939    -3.0328 H       
  74 H74           -3.9547     5.5435    -4.3725 H       
  75 H75           -3.8974     7.7408    -3.2627 H       
  76 H76           -4.1074     7.8890    -0.8137 H       
@<TRIPOS>BOND
   1    1    2 1
   2    1    3 1
   3    1    9 1
   4    1   39 1
   5    2    7 1
   6    2   40 1
   7    2   41 1
   8    3    4 1
   9    3   42 1
  10    3   43 1
  11    4    5 1
  12    5    6 1
  13    5   44 1
  14    5   45 1
  15    6    7 1
  16    7   46 1
  17    7   47 1
  18    8    9 1
  19    8   10 am
  20    8   11 2
  21   10   13 1
  22   10   48 1
  23   12   13 1
  24   12   33 1
  25   12   49 1
  26   12   50 1
  27   13   14 1
  28   13   51 1
  29   14   15 1
  30   14   30 1
  31   14   52 1
  32   15   16 1
  33   15   53 1
  34   15   54 1
  35   16   17 am
  36   16   26 1
  37   17   18 1
  38   17   24 2
  39   17   25 2
  40   18   19 ar
  41   18   23 ar
  42   19   20 ar
  43   19   55 1
  44   20   21 ar
  45   20   56 1
  46   21   22 ar
  47   21   31 1
  48   22   23 ar
  49   22   57 1
  50   23   58 1
  51   26   27 1
  52   26   59 1
  53   26   60 1
  54   27   28 1
  55   27   29 1
  56   27   61 1
  57   28   62 1
  58   28   63 1
  59   28   64 1
  60   29   65 1
  61   29   66 1
  62   29   67 1
  63   30   68 1
  64   31   32 1
  65   32   69 1
  66   32   70 1
  67   32   71 1
  68   33   34 ar
  69   33   38 ar
  70   34   35 ar
  71   34   72 1
  72   35   36 ar
  73   35   73 1
  74   36   37 ar
  75   36   74 1
  76   37   38 ar
  77   37   75 1
  78   38   76 1

#	End of record

