#	Name: ASD02030684
#	Creating user name:	WinNT
#	Creation time:	15. 06. 2019 20:15

#	Modifying user name:	WinNT
#	Modification time:	15. 06. 2019 20:15

#	Program:	/corina/corina34_cracker 3.40 0067  02.08.2006

@<TRIPOS>MOLECULE
ASD02030684
  28   29    0    0    0
SMALL
NO_CHARGES


@<TRIPOS>ATOM
   1 N1            -0.0169     1.3957     0.0097 N.2     
   2 N2             0.0021    -0.0041     0.0020 N.am    
   3 C3             1.1646    -0.6797    -0.0123 C.2     
   4 N4             2.3448    -0.0325    -0.0200 N.am    
   5 C5             2.3757     1.3164    -0.0131 C.2     
   6 C6             1.1074     2.0610     0.0026 C.2     
   7 O7             1.1494    -1.8958    -0.0178 O.2     
   8 O8             3.4386     1.9089    -0.0192 O.2     
   9 O9             1.1051     3.4197     0.0094 O.3     
  10 C10           -1.2627    -0.7434     0.0101 C.3     
  11 C11           -1.6892    -1.0085     1.4554 C.3     
  12 C12           -2.9902    -1.7690     1.4637 C.ar    
  13 C13           -2.9825    -3.1512     1.4562 C.ar    
  14 C14           -4.1778    -3.8495     1.4643 C.ar    
  15 C15           -5.3799    -3.1622     1.4799 C.ar    
  16 C16           -5.3851    -1.7805     1.4874 C.ar    
  17 C17           -4.1906    -1.0841     1.4846 C.ar    
  18 F18           -4.1715    -5.2005     1.4566 F       
  19 H19            3.1737    -0.5362    -0.0303 H       
  20 H20            0.2211     3.8114     0.0197 H       
  21 H21           -2.0303    -0.1556    -0.4933 H       
  22 H22           -1.1322    -1.6923    -0.5101 H       
  23 H23           -0.9215    -1.5962     1.9587 H       
  24 H24           -1.8197    -0.0596     1.9756 H       
  25 H25           -2.0444    -3.6861     1.4437 H       
  26 H26           -6.3130    -3.7060     1.4859 H       
  27 H27           -6.3225    -1.2443     1.4996 H       
  28 H28           -4.1956    -0.0042     1.4950 H       
@<TRIPOS>BOND
   1    1    2 1
   2    1    6 2
   3    2    3 am
   4    2   10 1
   5    3    4 am
   6    3    7 2
   7    4    5 am
   8    4   19 1
   9    5    6 1
  10    5    8 2
  11    6    9 1
  12    9   20 1
  13   10   11 1
  14   10   21 1
  15   10   22 1
  16   11   12 1
  17   11   23 1
  18   11   24 1
  19   12   13 ar
  20   12   17 ar
  21   13   14 ar
  22   13   25 1
  23   14   15 ar
  24   14   18 1
  25   15   16 ar
  26   15   26 1
  27   16   17 ar
  28   16   27 1
  29   17   28 1

#	End of record

