#	Name: ASD01900672
#	Creating user name:	WinNT
#	Creation time:	15. 06. 2019 19:52

#	Modifying user name:	WinNT
#	Modification time:	15. 06. 2019 19:52

#	Program:	/corina/corina34_cracker 3.40 0067  02.08.2006

@<TRIPOS>MOLECULE
ASD01900672
  57   61    0    0    0
SMALL
NO_CHARGES


@<TRIPOS>ATOM
   1 C1            -0.0186     1.4182     0.1363 C.ar    
   2 C2            -0.0085     0.0184     0.1255 C.ar    
   3 C3             1.2005    -0.6776     0.0650 C.ar    
   4 C4             2.3945     0.0227     0.0150 C.ar    
   5 C5             2.3660     1.4260     0.0306 C.ar    
   6 O6             3.5723    -0.6342    -0.0556 O.3     
   7 C7             4.7414    -0.0180     0.1908 C.2     
   8 C8             4.8673     1.3293     0.2214 C.2     
   9 C9             3.6621     2.1483    -0.0104 C.2     
  10 C10            5.9385    -0.8460     0.4391 C.ar    
  11 N11            7.1076    -0.2479     0.6856 N.ar    
  12 C12            8.2093    -0.9178     0.9147 C.ar    
  13 C13            8.1979    -2.3237     0.9084 C.ar    
  14 C14            6.9748    -2.9982     0.6505 C.ar    
  15 C15            5.8245    -2.2272     0.4173 C.ar    
  16 C16            9.3583    -3.0748     1.1486 C.ar    
  17 C17            9.2942    -4.4355     1.1309 C.ar    
  18 C18            8.0939    -5.0966     0.8775 C.ar    
  19 C19            6.9466    -4.4012     0.6407 C.ar    
  20 C20            1.1580     2.1126     0.0893 C.ar    
  21 C21           -1.2443    -0.7034     0.1771 C.1     
  22 C22           -2.2574    -1.2951     0.2195 C.1     
  23 C23           -3.4931    -2.0169     0.2711 C.ar    
  24 C24           -3.4903    -3.4144     0.2607 C.ar    
  25 C25           -4.6832    -4.1058     0.3110 C.ar    
  26 C26           -5.8827    -3.4207     0.3719 C.ar    
  27 C27           -5.8961    -2.0320     0.3824 C.ar    
  28 C28           -4.7059    -1.3270     0.3380 C.ar    
  29 O29           -7.0787    -1.3648     0.4419 O.3     
  30 C30           -8.2679    -2.1556     0.4914 C.3     
  31 C31           -9.4894    -1.2363     0.5545 C.3     
  32 O32           -9.5843    -0.4864    -0.6582 O.3     
  33 C33          -10.6976     0.4083    -0.7026 C.3     
  34 N34            3.7317     3.4377    -0.2388 N.2     
  35 O35            2.5671     4.1563    -0.6025 O.3     
  36 H36           -0.9575     1.9503     0.1774 H       
  37 H37            1.2046    -1.7576     0.0577 H       
  38 H38            5.8245     1.7926     0.4102 H       
  39 H39            9.1303    -0.3882     1.1090 H       
  40 H40            4.8743    -2.6998     0.2173 H       
  41 H41           10.2964    -2.5774     1.3459 H       
  42 H42           10.1887    -5.0116     1.3161 H       
  43 H43            8.0728    -6.1764     0.8690 H       
  44 H44            6.0228    -4.9256     0.4456 H       
  45 H45            1.1494     3.1926     0.0977 H       
  46 H46           -2.5553    -3.9526     0.2128 H       
  47 H47           -4.6800    -5.1857     0.3025 H       
  48 H48           -6.8130    -3.9679     0.4112 H       
  49 H49           -4.7153    -0.2471     0.3461 H       
  50 H50           -8.3276    -2.7783    -0.4012 H       
  51 H51           -8.2452    -2.7909     1.3768 H       
  52 H52          -10.3900    -1.8370     0.6816 H       
  53 H53           -9.3865    -0.5528     1.3973 H       
  54 H54          -11.6233    -0.1582    -0.6016 H       
  55 H55          -10.6199     1.1260     0.1141 H       
  56 H56          -10.6989     0.9397    -1.6543 H       
  57 H57            2.7173     5.1001    -0.7501 H       
@<TRIPOS>BOND
   1    1    2 ar
   2    1   20 ar
   3    1   36 1
   4    2    3 ar
   5    2   21 1
   6    3    4 ar
   7    3   37 1
   8    4    5 ar
   9    4    6 1
  10    5   20 ar
  11    5    9 1
  12    6    7 1
  13    7    8 2
  14    7   10 1
  15    8    9 1
  16    8   38 1
  17    9   34 2
  18   10   11 ar
  19   10   15 ar
  20   11   12 ar
  21   12   13 ar
  22   12   39 1
  23   13   14 ar
  24   13   16 ar
  25   14   15 ar
  26   14   19 ar
  27   15   40 1
  28   16   17 ar
  29   16   41 1
  30   17   18 ar
  31   17   42 1
  32   18   19 ar
  33   18   43 1
  34   19   44 1
  35   20   45 1
  36   21   22 3
  37   22   23 1
  38   23   24 ar
  39   23   28 ar
  40   24   25 ar
  41   24   46 1
  42   25   26 ar
  43   25   47 1
  44   26   27 ar
  45   26   48 1
  46   27   28 ar
  47   27   29 1
  48   28   49 1
  49   29   30 1
  50   30   31 1
  51   30   50 1
  52   30   51 1
  53   31   32 1
  54   31   52 1
  55   31   53 1
  56   32   33 1
  57   33   54 1
  58   33   55 1
  59   33   56 1
  60   34   35 1
  61   35   57 1

#	End of record

