#	Name: ASD09890049
#	Creating user name:	WinNT
#	Creation time:	15. 06. 2019 21:24

#	Modifying user name:	WinNT
#	Modification time:	15. 06. 2019 21:24

#	Program:	/corina/corina34_cracker 3.40 0067  02.08.2006

@<TRIPOS>MOLECULE
ASD09890049
  42   44    0    0    0
SMALL
NO_CHARGES


@<TRIPOS>ATOM
   1 C1            -0.0167     1.3788     0.0096 C.ar    
   2 C2             0.0021    -0.0041     0.0020 C.ar    
   3 C3             1.2071    -0.6826    -0.0132 C.ar    
   4 C4             2.3964     0.0190    -0.0204 C.ar    
   5 C5             2.3814     1.4087    -0.0127 C.ar    
   6 C6             1.1686     2.0871     0.0021 C.ar    
   7 S7             3.8965     2.3082    -0.0213 S.3     
   8 C8             3.3451     4.0363    -0.0071 C.3     
   9 C9             4.5459     4.9468    -0.0128 C.2     
  10 N10            5.1832     5.4433    -1.1190 N.pl3   
  11 C11            6.2068     6.2142    -0.6400 C.2     
  12 N12            6.1504     6.1560     0.6704 N.2     
  13 N13            5.1672     5.4124     1.0337 N.2     
  14 S14            7.3791     7.1138    -1.5998 S.3     
  15 C15            8.3698     7.8504    -0.2761 C.3     
  16 C16            9.0858     6.7440     0.5011 C.3     
  17 C17            9.4052     8.8000    -0.8821 C.3     
  18 C18            4.8552     5.2095    -2.4624 C.ar    
  19 C19            4.4206     6.2558    -3.2644 C.ar    
  20 C20            4.0988     6.0225    -4.5873 C.ar    
  21 C21            4.2091     4.7483    -5.1128 C.ar    
  22 C22            4.6418     3.7041    -4.3162 C.ar    
  23 C23            4.9700     3.9323    -2.9941 C.ar    
  24 H24           -0.9266    -0.5554     0.0083 H       
  25 H25           -0.9596     1.9054     0.0170 H       
  26 H26            1.2180    -1.7625    -0.0191 H       
  27 H27            3.3370    -0.5115    -0.0315 H       
  28 H28            1.1532     3.1670     0.0077 H       
  29 H29            2.7373     4.2310    -0.8907 H       
  30 H30            2.7530     4.2214     0.8891 H       
  31 H31            7.7187     8.4057     0.3990 H       
  32 H32            9.7369     6.1887    -0.1740 H       
  33 H33            9.6825     7.1876     1.2982 H       
  34 H34            8.3482     6.0675     0.9328 H       
  35 H35            8.8950     9.5882    -1.4358 H       
  36 H36           10.0018     9.2436    -0.0850 H       
  37 H37           10.0562     8.2447    -1.5573 H       
  38 H38            4.3339     7.2512    -2.8544 H       
  39 H39            3.7603     6.8362    -5.2116 H       
  40 H40            3.9566     4.5682    -6.1473 H       
  41 H41            4.7270     2.7099    -4.7294 H       
  42 H42            5.3082     3.1164    -2.3725 H       
@<TRIPOS>BOND
   1    1    2 ar
   2    1    6 ar
   3    1   25 1
   4    2    3 ar
   5    2   24 1
   6    3    4 ar
   7    3   26 1
   8    4    5 ar
   9    4   27 1
  10    5    6 ar
  11    5    7 1
  12    6   28 1
  13    7    8 1
  14    8    9 1
  15    8   29 1
  16    8   30 1
  17    9   10 1
  18    9   13 2
  19   10   11 1
  20   10   18 1
  21   11   12 2
  22   11   14 1
  23   12   13 1
  24   14   15 1
  25   15   16 1
  26   15   17 1
  27   15   31 1
  28   16   32 1
  29   16   33 1
  30   16   34 1
  31   17   35 1
  32   17   36 1
  33   17   37 1
  34   18   19 ar
  35   18   23 ar
  36   19   20 ar
  37   19   38 1
  38   20   21 ar
  39   20   39 1
  40   21   22 ar
  41   21   40 1
  42   22   23 ar
  43   22   41 1
  44   23   42 1

#	End of record

