#	Name: ASD01180223
#	Creating user name:	WinNT
#	Creation time:	15. 06. 2019 19:07

#	Modifying user name:	WinNT
#	Modification time:	15. 06. 2019 19:07

#	Program:	/corina/corina34_cracker 3.40 0067  02.08.2006

@<TRIPOS>MOLECULE
ASD01180223
  60   62    0    0    0
SMALL
NO_CHARGES


@<TRIPOS>ATOM
   1 C1            -0.0166     1.3758     0.0096 C.ar    
   2 C2             0.0021    -0.0041     0.0020 C.ar    
   3 C3             1.2200    -0.6818    -0.0132 C.ar    
   4 C4             2.4127     0.0394    -0.0207 C.ar    
   5 C5             2.3818     1.4191    -0.0130 C.ar    
   6 C6             1.1702     2.0863     0.0021 C.ar    
   7 C7             1.2466    -2.1644    -0.0210 C.ar    
   8 N8             2.4162    -2.7889    -0.0355 N.ar    
   9 C9             2.4790    -4.1084    -0.0427 C.ar    
  10 C10            1.2948    -4.8435    -0.0349 C.ar    
  11 C11            0.0849    -4.1516    -0.0197 C.ar    
  12 N12            0.1003    -2.8306    -0.0077 N.ar    
  13 N13            1.3199    -6.2400    -0.0426 N.pl3   
  14 C14            0.0646    -6.9952    -0.0342 C.3     
  15 C15            0.2920    -8.3543    -0.6443 C.ar    
  16 C16           -0.6636    -8.9019    -1.4818 C.ar    
  17 C17           -0.4616   -10.1457    -2.0435 C.ar    
  18 C18            0.7100   -10.8516    -1.7656 C.ar    
  19 C19            1.6701   -10.2932    -0.9203 C.ar    
  20 C20            1.4579    -9.0465    -0.3689 C.ar    
  21 C21            0.9328   -12.1852    -2.3637 C.2     
  22 N22            2.0652   -12.8643    -2.0934 N.am    
  23 O23            0.0948   -12.6691    -3.0992 O.2     
  24 C24            1.1431     3.5931     0.0104 C.3     
  25 F25            1.1222     4.0664    -1.3059 F       
  26 F26           -0.0010     4.0352     0.6832 F       
  27 F27            2.2831     4.0764     0.6617 F       
  28 C28           -0.4230    -7.1581     1.4068 C.3     
  29 C29           -0.7726    -5.7854     1.9852 C.3     
  30 C30           -1.2601    -5.9483     3.4262 C.3     
  31 C31            2.2860   -14.1857    -2.6861 C.3     
  32 C32            3.6368   -14.7338    -2.2214 C.3     
  33 C33            3.8639   -16.0931    -2.8311 C.2     
  34 O34            3.0309   -16.5742    -3.5622 O.2     
  35 O35            4.9917   -16.7695    -2.5619 O.3     
  36 H36           -0.9598     1.9020     0.0169 H       
  37 H37           -0.9252    -0.5578     0.0082 H       
  38 H38            3.3593    -0.4805    -0.0322 H       
  39 H39            3.3054     1.9789    -0.0185 H       
  40 H40            3.4349    -4.6108    -0.0549 H       
  41 H41           -0.8523    -4.6881    -0.0136 H       
  42 H42            2.1685    -6.7097    -0.0536 H       
  43 H43           -0.6865    -6.4580    -0.6134 H       
  44 H44           -1.5697    -8.3547    -1.6960 H       
  45 H45           -1.2086   -10.5724    -2.6965 H       
  46 H46            2.5787   -10.8343    -0.7013 H       
  47 H47            2.2000    -8.6133     0.2853 H       
  48 H48            2.7340   -12.4781    -1.5065 H       
  49 H49           -1.3077    -7.7945     1.4213 H       
  50 H50            0.3636    -7.6156     2.0070 H       
  51 H51            0.1122    -5.1490     1.9707 H       
  52 H52           -1.5591    -5.3279     1.3850 H       
  53 H53           -0.4736    -6.4059     4.0264 H       
  54 H54           -1.5092    -4.9704     3.8383 H       
  55 H55           -2.1449    -6.5848     3.4407 H       
  56 H56            1.4916   -14.8624    -2.3713 H       
  57 H57            2.2824   -14.1017    -3.7729 H       
  58 H58            4.4312   -14.0571    -2.5362 H       
  59 H59            3.6404   -14.8178    -1.1347 H       
  60 H60            5.0926   -17.6374    -2.9761 H       
@<TRIPOS>BOND
   1    1    2 ar
   2    1    6 ar
   3    1   36 1
   4    2    3 ar
   5    2   37 1
   6    3    4 ar
   7    3    7 1
   8    4    5 ar
   9    4   38 1
  10    5    6 ar
  11    5   39 1
  12    6   24 1
  13    7    8 ar
  14    7   12 ar
  15    8    9 ar
  16    9   10 ar
  17    9   40 1
  18   10   11 ar
  19   10   13 1
  20   11   12 ar
  21   11   41 1
  22   13   14 1
  23   13   42 1
  24   14   15 1
  25   14   28 1
  26   14   43 1
  27   15   16 ar
  28   15   20 ar
  29   16   17 ar
  30   16   44 1
  31   17   18 ar
  32   17   45 1
  33   18   19 ar
  34   18   21 1
  35   19   20 ar
  36   19   46 1
  37   20   47 1
  38   21   22 am
  39   21   23 2
  40   22   31 1
  41   22   48 1
  42   24   25 1
  43   24   26 1
  44   24   27 1
  45   28   29 1
  46   28   49 1
  47   28   50 1
  48   29   30 1
  49   29   51 1
  50   29   52 1
  51   30   53 1
  52   30   54 1
  53   30   55 1
  54   31   32 1
  55   31   56 1
  56   31   57 1
  57   32   33 1
  58   32   58 1
  59   32   59 1
  60   33   34 2
  61   33   35 1
  62   35   60 1

#	End of record

