#	Name: ASD00170389
#	Creating user name:	WinNT
#	Creation time:	15. 06. 2019 18:32

#	Modifying user name:	WinNT
#	Modification time:	15. 06. 2019 18:32

#	Program:	/corina/corina34_cracker 3.40 0067  02.08.2006

@<TRIPOS>MOLECULE
ASD00170389
  49   51    0    0    0
SMALL
NO_CHARGES


@<TRIPOS>ATOM
   1 C1            -0.0164     1.3567     0.0095 C.2     
   2 C2             0.0021    -0.0041     0.0020 C.2     
   3 S3            -1.6499    -0.5927    -0.0112 S.3     
   4 C4            -2.2442     1.0652     0.0089 C.2     
   5 N5            -1.2396     1.8846     0.0186 N.2     
   6 N6            -3.5790     1.4364     0.0127 N.pl3   
   7 C7             1.2822     2.0966     0.0011 C.ar    
   8 C8             2.4359     1.3899    -0.3353 C.ar    
   9 C9             2.3707    -0.0589    -0.7341 C.3     
  10 C10            1.2752    -0.8107     0.0194 C.3     
  11 C11            1.3387     3.4453     0.3225 C.ar    
  12 C12            2.5591     4.0929     0.3278 C.ar    
  13 C13            3.7147     3.3899     0.0149 C.ar    
  14 C14            3.6536     2.0437    -0.3147 C.ar    
  15 O15            4.9157     4.0258     0.0313 O.3     
  16 C16           10.6217    12.0219     1.3524 C.3     
  17 C17            9.1904    11.4826     1.3875 C.3     
  18 C18            9.1953     9.9984     1.0160 C.3     
  19 C19            7.7640     9.4591     1.0511 C.3     
  20 C20            7.7689     7.9749     0.6796 C.3     
  21 C21            6.3375     7.4356     0.7147 C.3     
  22 C22            6.3425     5.9514     0.3432 C.3     
  23 C23            4.9111     5.4121     0.3783 C.3     
  24 H24           -4.2713     0.7570     0.0039 H       
  25 H25           -3.8212     2.3756     0.0241 H       
  26 H26            2.1733    -0.1235    -1.8041 H       
  27 H27            3.3317    -0.5281    -0.5235 H       
  28 H28            1.5890    -0.9710     1.0509 H       
  29 H29            1.1009    -1.7740    -0.4600 H       
  30 H30            0.4355     3.9848     0.5664 H       
  31 H31            2.6140     5.1429     0.5742 H       
  32 H32            4.5586     1.5057    -0.5552 H       
  33 H33           11.2352    11.4709     2.0653 H       
  34 H34           11.0316    11.8997     0.3498 H       
  35 H35           10.6182    13.0792     1.6171 H       
  36 H36            8.7806    11.6048     2.3901 H       
  37 H37            8.5769    12.0335     0.6746 H       
  38 H38            9.6051     9.8762     0.0134 H       
  39 H39            9.8088     9.4474     1.7289 H       
  40 H40            7.3541     9.5813     2.0537 H       
  41 H41            7.1505    10.0100     0.3382 H       
  42 H42            8.1787     7.8527    -0.3230 H       
  43 H43            8.3823     7.4239     1.3925 H       
  44 H44            5.9277     7.5578     1.7173 H       
  45 H45            5.7241     7.9865     0.0018 H       
  46 H46            6.7523     5.8292    -0.6594 H       
  47 H47            6.9559     5.4004     1.0561 H       
  48 H48            4.2977     5.9630    -0.3346 H       
  49 H49            4.5013     5.5343     1.3809 H       
@<TRIPOS>BOND
   1    1    2 2
   2    1    7 1
   3    1    5 1
   4    2    3 1
   5    2   10 1
   6    3    4 1
   7    4    5 2
   8    4    6 1
   9    6   24 1
  10    6   25 1
  11    7    8 ar
  12    7   11 ar
  13    8    9 1
  14    8   14 ar
  15    9   10 1
  16    9   26 1
  17    9   27 1
  18   10   28 1
  19   10   29 1
  20   11   12 ar
  21   11   30 1
  22   12   13 ar
  23   12   31 1
  24   13   14 ar
  25   13   15 1
  26   14   32 1
  27   15   23 1
  28   16   17 1
  29   16   33 1
  30   16   34 1
  31   16   35 1
  32   17   18 1
  33   17   36 1
  34   17   37 1
  35   18   19 1
  36   18   38 1
  37   18   39 1
  38   19   20 1
  39   19   40 1
  40   19   41 1
  41   20   21 1
  42   20   42 1
  43   20   43 1
  44   21   22 1
  45   21   44 1
  46   21   45 1
  47   22   23 1
  48   22   46 1
  49   22   47 1
  50   23   48 1
  51   23   49 1

#	End of record

