#	Name: ASD03910087
#	Creating user name:	WinNT
#	Creation time:	15. 06. 2019 20:47

#	Modifying user name:	WinNT
#	Modification time:	15. 06. 2019 20:47

#	Program:	/corina/corina34_cracker 3.40 0067  02.08.2006

@<TRIPOS>MOLECULE
ASD03910087
  21   21    0    0    0
SMALL
NO_CHARGES


@<TRIPOS>ATOM
   1 C1            -0.0168     1.3904     0.0097 C.ar    
   2 C2             0.0021    -0.0041     0.0020 C.ar    
   3 C3             1.2192    -0.6849    -0.0133 C.ar    
   4 C4             2.4174     0.0288    -0.0214 C.ar    
   5 C5             2.3984     1.4233    -0.0147 C.ar    
   6 C6             1.1814     2.1041     0.0021 C.ar    
   7 C7            -1.3063     2.1118     0.0197 C.2     
   8 O8            -2.3499     1.4902     0.0213 O.2     
   9 O9            -1.3246     3.4587     0.0271 O.3     
  10 C10            1.2392    -2.1623    -0.0205 C.2     
  11 O11            0.1957    -2.7839    -0.0130 O.2     
  12 O12            2.4148    -2.8199    -0.0353 O.3     
  13 C13            3.6679     2.1795    -0.0223 C.2     
  14 O14            4.7279     1.5865    -0.0344 O.2     
  15 O15            3.6496     3.5264    -0.0158 O.3     
  16 H16           -0.9258    -0.5567     0.0083 H       
  17 H17            3.3599    -0.4984    -0.0326 H       
  18 H18            1.1667     3.1840     0.0077 H       
  19 H19           -2.1921     3.8859     0.0336 H       
  20 H20            2.3773    -3.7861    -0.0394 H       
  21 H21            4.5051     3.9771    -0.0212 H       
@<TRIPOS>BOND
   1    1    2 ar
   2    1    6 ar
   3    1    7 1
   4    2    3 ar
   5    2   16 1
   6    3    4 ar
   7    3   10 1
   8    4    5 ar
   9    4   17 1
  10    5    6 ar
  11    5   13 1
  12    6   18 1
  13    7    8 2
  14    7    9 1
  15    9   19 1
  16   10   11 2
  17   10   12 1
  18   12   20 1
  19   13   14 2
  20   13   15 1
  21   15   21 1

#	End of record

