#	Name: ASD01816462
#	Creating user name:	WinNT
#	Creation time:	15. 06. 2019 19:35

#	Modifying user name:	WinNT
#	Modification time:	15. 06. 2019 19:35

#	Program:	/corina/corina34_cracker 3.40 0067  02.08.2006

@<TRIPOS>MOLECULE
ASD01816462
  54   59    0    0    0
SMALL
NO_CHARGES


@<TRIPOS>ATOM
   1 C1            -0.0753     1.3139     0.1746 C.ar    
   2 C2            -0.0314    -0.0709     0.1627 C.ar    
   3 C3             1.1775    -0.7356     0.0939 C.ar    
   4 C4             2.3669    -0.0140     0.0356 C.ar    
   5 C5             2.3169     1.3893     0.0479 C.ar    
   6 C6             1.0925     2.0464     0.1175 C.ar    
   7 N7             3.5829    -0.6734    -0.0331 N.pl3   
   8 C8             4.7603    -0.0313    -0.0913 C.2     
   9 C9             4.8360     1.3396    -0.0859 C.2     
  10 C10            3.5888     2.1345    -0.0147 C.2     
  11 C11            5.9124     2.3239    -0.1364 C.2     
  12 N12            5.3167     3.5353    -0.0969 N.am    
  13 N13            3.9288     3.3913    -0.0244 N.2     
  14 C14            5.9931     4.7604    -0.1245 C.ar    
  15 O15            7.1098     2.0979    -0.2007 O.2     
  16 C16            3.5843    -2.1384    -0.0422 C.3     
  17 C17            3.7129    -2.6494     1.3696 C.ar    
  18 C18            2.5889    -2.7651     2.1667 C.ar    
  19 C19            2.7037    -3.2327     3.4612 C.ar    
  20 C20            3.9492    -3.5872     3.9619 C.ar    
  21 C21            5.0758    -3.4704     3.1590 C.ar    
  22 C22            4.9540    -3.0070     1.8636 C.ar    
  23 N23            4.0690    -4.0616     5.2755 N.pl3   
  24 C24            5.2161    -4.4393     5.8838 C.2     
  25 C25            4.9056    -4.8319     7.1410 C.2     
  26 C26            3.5236    -4.6899     7.3077 C.2     
  27 N27            3.0223    -4.2228     6.1926 N.2     
  28 C28            6.8799     5.0424    -1.1555 C.ar    
  29 C29            7.5466     6.2519    -1.1811 C.ar    
  30 C30            7.3330     7.1825    -0.1815 C.ar    
  31 C31            6.4493     6.9054     0.8489 C.ar    
  32 C32            5.7745     5.6985     0.8760 C.ar    
  33 F33            1.2058    -2.0863     0.0836 F       
  34 F34            6.2428     7.8166     1.8248 F       
  35 C35            4.8131     5.3964     1.9966 C.3     
  36 H36           -1.0272     1.8216     0.2242 H       
  37 H37           -0.9507    -0.6357     0.2081 H       
  38 H38            1.0562     3.1258     0.1265 H       
  39 H39            5.6719    -0.6081    -0.1434 H       
  40 H40            2.6519    -2.4999    -0.4759 H       
  41 H41            4.4246    -2.4973    -0.6365 H       
  42 H42            1.6203    -2.4892     1.7767 H       
  43 H43            1.8255    -3.3221     4.0835 H       
  44 H44            6.0461    -3.7450     3.5459 H       
  45 H45            5.8300    -2.9160     1.2386 H       
  46 H46            6.2028    -4.4300     5.4448 H       
  47 H47            5.6015    -5.1914     7.8845 H       
  48 H48            2.9670    -4.9215     8.2037 H       
  49 H49            7.0484     4.3161    -1.9369 H       
  50 H50            8.2361     6.4707    -1.9831 H       
  51 H51            7.8562     8.1270    -0.2036 H       
  52 H52            3.8156     5.7395     1.7218 H       
  53 H53            4.7909     4.3216     2.1765 H       
  54 H54            5.1374     5.9098     2.9018 H       
@<TRIPOS>BOND
   1    1    2 ar
   2    1    6 ar
   3    1   36 1
   4    2    3 ar
   5    2   37 1
   6    3    4 ar
   7    3   33 1
   8    4    5 ar
   9    4    7 1
  10    5    6 ar
  11    5   10 1
  12    6   38 1
  13    7    8 1
  14    7   16 1
  15    8    9 2
  16    8   39 1
  17    9   10 1
  18    9   11 1
  19   10   13 2
  20   11   12 am
  21   11   15 2
  22   12   13 1
  23   12   14 1
  24   14   28 ar
  25   14   32 ar
  26   16   17 1
  27   16   40 1
  28   16   41 1
  29   17   18 ar
  30   17   22 ar
  31   18   19 ar
  32   18   42 1
  33   19   20 ar
  34   19   43 1
  35   20   21 ar
  36   20   23 1
  37   21   22 ar
  38   21   44 1
  39   22   45 1
  40   23   24 1
  41   23   27 1
  42   24   25 2
  43   24   46 1
  44   25   26 1
  45   25   47 1
  46   26   27 2
  47   26   48 1
  48   28   29 ar
  49   28   49 1
  50   29   30 ar
  51   29   50 1
  52   30   31 ar
  53   30   51 1
  54   31   32 ar
  55   31   34 1
  56   32   35 1
  57   35   52 1
  58   35   53 1
  59   35   54 1

#	End of record

