#	Name: ASD03330970
#	Creating user name:	WinNT
#	Creation time:	15. 06. 2019 20:38

#	Modifying user name:	WinNT
#	Modification time:	15. 06. 2019 20:38

#	Program:	/corina/corina34_cracker 3.40 0067  02.08.2006

@<TRIPOS>MOLECULE
ASD03330970
  55   58    0    0    0
SMALL
NO_CHARGES


@<TRIPOS>ATOM
   1 N1             0.8433     0.8707     0.2170 N.pl3   
   2 C2             0.7052    -0.4751     0.0781 C.2     
   3 C3             1.8323    -1.4600    -0.0914 C.3     
   4 N4             2.8727    -1.1793     0.9103 N.3     
   5 C5             3.8438    -0.2057     0.4078 C.3     
   6 C6             3.1725     0.8098    -0.5125 C.3     
   7 C7             2.1155     1.5967     0.2671 C.3     
   8 C8            -0.4099     1.4025     0.3112 C.2     
   9 N9            -1.2849     0.4259     0.2514 N.2     
  10 C10           -0.6285    -0.7469     0.1103 C.2     
  11 C11           -1.2457    -2.0810     0.0086 C.2     
  12 O12           -0.5451    -3.0672    -0.1173 O.2     
  13 N13           -2.5866    -2.2085     0.0550 N.am    
  14 C14           -0.7289     2.8390     0.4568 C.ar    
  15 C15           -1.7127     3.4237    -0.3453 C.ar    
  16 C16           -2.0070     4.7663    -0.2047 C.ar    
  17 C17           -1.3289     5.5323     0.7288 C.ar    
  18 C18           -0.3507     4.9566     1.5276 C.ar    
  19 C19           -0.0529     3.6142     1.3996 C.ar    
  20 F20            0.3077     5.7098     2.4356 F       
  21 F21           -1.6202     6.8448     0.8620 F       
  22 F22           -2.3743     2.6777    -1.2569 F       
  23 C23            3.5401    -2.4164     1.3370 C.3     
  24 C24           -3.2054    -3.5201    -0.1522 C.3     
  25 C25           -2.7686    -4.5038     0.9530 C.3     
  26 C26           -3.8638    -4.4659     2.0331 C.3     
  27 C27           -4.9280    -3.4605     1.5466 C.3     
  28 C28           -4.7429    -3.4258     0.0092 C.3     
  29 C29           -2.8418    -4.0701    -1.5328 C.3     
  30 O30           -3.2857    -3.1592    -2.5405 O.3     
  31 H31            1.4552    -2.4730     0.0490 H       
  32 H32            2.2540    -1.3626    -1.0918 H       
  33 H33            4.2946     0.3182     1.2507 H       
  34 H34            4.6231    -0.7299    -0.1453 H       
  35 H35            3.9230     1.4980    -0.9014 H       
  36 H36            2.6965     0.2875    -1.3424 H       
  37 H37            1.9906     2.5823    -0.1814 H       
  38 H38            2.4329     1.7047     1.3043 H       
  39 H39           -3.1420    -1.4317     0.2257 H       
  40 H40           -2.7671     5.2193    -0.8240 H       
  41 H41            0.7053     3.1663     2.0248 H       
  42 H42            3.9447    -2.9303     0.4650 H       
  43 H43            4.3506    -2.1736     2.0241 H       
  44 H44            2.8202    -3.0634     1.8384 H       
  45 H45           -2.6822    -5.5104     0.5440 H       
  46 H46           -1.8149    -4.1894     1.3771 H       
  47 H47           -4.3090    -5.4542     2.1484 H       
  48 H48           -3.4417    -4.1332     2.9814 H       
  49 H49           -5.9282    -3.8099     1.8027 H       
  50 H50           -4.7458    -2.4750     1.9752 H       
  51 H51           -5.1180    -2.4894    -0.4039 H       
  52 H52           -5.2335    -4.2795    -0.4583 H       
  53 H53           -1.7607    -4.1907    -1.6028 H       
  54 H54           -3.3253    -5.0362    -1.6779 H       
  55 H55           -3.0882    -3.4444    -3.4431 H       
@<TRIPOS>BOND
   1    1    2 1
   2    1    7 1
   3    1    8 1
   4    2    3 1
   5    2   10 2
   6    3    4 1
   7    3   31 1
   8    3   32 1
   9    4    5 1
  10    4   23 1
  11    5    6 1
  12    5   33 1
  13    5   34 1
  14    6    7 1
  15    6   35 1
  16    6   36 1
  17    7   37 1
  18    7   38 1
  19    8    9 2
  20    8   14 1
  21    9   10 1
  22   10   11 1
  23   11   12 2
  24   11   13 am
  25   13   24 1
  26   13   39 1
  27   14   15 ar
  28   14   19 ar
  29   15   16 ar
  30   15   22 1
  31   16   17 ar
  32   16   40 1
  33   17   18 ar
  34   17   21 1
  35   18   19 ar
  36   18   20 1
  37   19   41 1
  38   23   42 1
  39   23   43 1
  40   23   44 1
  41   24   25 1
  42   24   28 1
  43   24   29 1
  44   25   26 1
  45   25   45 1
  46   25   46 1
  47   26   27 1
  48   26   47 1
  49   26   48 1
  50   27   28 1
  51   27   49 1
  52   27   50 1
  53   28   51 1
  54   28   52 1
  55   29   30 1
  56   29   53 1
  57   29   54 1
  58   30   55 1

#	End of record

