#	Name: ASD01885055
#	Creating user name:	WinNT
#	Creation time:	15. 06. 2019 19:49

#	Modifying user name:	WinNT
#	Modification time:	15. 06. 2019 19:49

#	Program:	/corina/corina34_cracker 3.40 0067  02.08.2006

@<TRIPOS>MOLECULE
ASD01885055
  59   63    0    0    0
SMALL
NO_CHARGES


@<TRIPOS>ATOM
   1 C1            -0.0521     1.4244    -0.1284 C.2     
   2 C2            -0.0963     0.0574    -0.4634 C.2     
   3 C3            -1.2612    -0.6274    -0.3073 C.2     
   4 C4            -2.3992     0.0352     0.1838 C.2     
   5 C5            -2.3420     1.3459     0.5004 C.2     
   6 N6            -1.1788     2.0431     0.3554 N.pl3   
   7 C7            -0.8248     3.3371     0.5821 C.2     
   8 N8             0.4339     3.4647     0.2500 N.2     
   9 N9             0.9018     2.3404    -0.1659 N.2     
  10 C10           -1.7198     4.4251     1.1174 C.3     
  11 C11            1.1325    -0.6386    -0.9893 C.3     
  12 C12           -1.6336     4.4510     2.6447 C.3     
  13 C13           -2.3827     5.5670     3.3757 C.3     
  14 C14           -2.9073     4.1307     3.4296 C.3     
  15 C15           -1.3313    -2.0908    -0.6600 C.3     
  16 N16           -1.5579    -2.8781     0.5593 N.3     
  17 C17           -1.9971    -4.2406     0.2320 C.3     
  18 C18           -2.3622    -4.9833     1.5193 C.3     
  19 C19           -1.1402    -5.0285     2.4408 C.3     
  20 C20           -0.6735    -3.5986     2.7271 C.3     
  21 C21           -0.3574    -2.8959     1.4048 C.3     
  22 C22           -1.5102    -5.7062     3.7350 C.ar    
  23 C23           -0.8493    -6.8603     4.1273 C.ar    
  24 C24           -1.1928    -7.4825     5.3208 C.ar    
  25 C25           -2.1927    -6.9490     6.1140 C.ar    
  26 C26           -2.8494    -5.7983     5.7187 C.ar    
  27 C27           -2.5044    -5.1745     4.5341 C.ar    
  28 O28            0.1326    -7.3821     3.3452 O.3     
  29 F29            0.9995    -0.8422    -2.3670 F       
  30 F30            2.2590     0.1531    -0.7415 F       
  31 F31            1.2798    -1.8730    -0.3476 F       
  32 F32           -0.5514    -8.6074     5.7062 F       
  33 C33            1.4655    -6.9271     3.5872 C.3     
  34 H34           -3.3246    -0.5074     0.3082 H       
  35 H35           -3.2228     1.8452     0.8763 H       
  36 H36           -1.3995     5.3878     0.7190 H       
  37 H37           -2.7487     4.2308     0.8147 H       
  38 H38           -0.6849     4.1207     3.0677 H       
  39 H39           -1.9270     5.9706     4.2799 H       
  40 H40           -2.9369     6.2827     2.7685 H       
  41 H41           -3.8066     3.9016     2.8579 H       
  42 H42           -2.7967     3.5895     4.3693 H       
  43 H43           -2.1520    -2.2574    -1.3578 H       
  44 H44           -0.3933    -2.3986    -1.1222 H       
  45 H45           -2.8692    -4.1942    -0.4203 H       
  46 H46           -1.1912    -4.7697    -0.2764 H       
  47 H47           -3.1775    -4.4623     2.0213 H       
  48 H48           -2.6733    -5.9996     1.2773 H       
  49 H49           -0.3377    -5.5831     1.9546 H       
  50 H50           -1.4623    -3.0558     3.2481 H       
  51 H51            0.2219    -3.6254     3.3481 H       
  52 H52            0.4409    -3.4314     0.8909 H       
  53 H53           -0.0385    -1.8729     1.6044 H       
  54 H54           -2.4608    -7.4317     7.0421 H       
  55 H55           -3.6303    -5.3835     6.3388 H       
  56 H56           -3.0159    -4.2731     4.2304 H       
  57 H57            2.1490    -7.4208     2.8965 H       
  58 H58            1.5139    -5.8485     3.4375 H       
  59 H59            1.7501    -7.1648     4.6121 H       
@<TRIPOS>BOND
   1    1    2 1
   2    1    9 2
   3    1    6 1
   4    2    3 2
   5    2   11 1
   6    3    4 1
   7    3   15 1
   8    4    5 2
   9    4   34 1
  10    5    6 1
  11    5   35 1
  12    6    7 1
  13    7    8 2
  14    7   10 1
  15    8    9 1
  16   10   12 1
  17   10   36 1
  18   10   37 1
  19   11   29 1
  20   11   30 1
  21   11   31 1
  22   12   13 1
  23   12   14 1
  24   12   38 1
  25   13   14 1
  26   13   39 1
  27   13   40 1
  28   14   41 1
  29   14   42 1
  30   15   16 1
  31   15   43 1
  32   15   44 1
  33   16   17 1
  34   16   21 1
  35   17   18 1
  36   17   45 1
  37   17   46 1
  38   18   19 1
  39   18   47 1
  40   18   48 1
  41   19   20 1
  42   19   22 1
  43   19   49 1
  44   20   21 1
  45   20   50 1
  46   20   51 1
  47   21   52 1
  48   21   53 1
  49   22   23 ar
  50   22   27 ar
  51   23   24 ar
  52   23   28 1
  53   24   25 ar
  54   24   32 1
  55   25   26 ar
  56   25   54 1
  57   26   27 ar
  58   26   55 1
  59   27   56 1
  60   28   33 1
  61   33   57 1
  62   33   58 1
  63   33   59 1

#	End of record

