#	Name: ASD05143322
#	Creating user name:	WinNT
#	Creation time:	15. 06. 2019 20:57

#	Modifying user name:	WinNT
#	Modification time:	15. 06. 2019 20:57

#	Program:	/corina/corina34_cracker 3.40 0067  02.08.2006

@<TRIPOS>MOLECULE
ASD05143322
  49   51    0    0    0
SMALL
NO_CHARGES


@<TRIPOS>ATOM
   1 C1            -0.0902     1.3119     1.1197 C.2     
   2 N2            -0.0791    -0.0061     1.1539 N.2     
   3 S3            -1.5702    -0.4960     0.5029 S.3     
   4 C4            -2.1346     1.1059     0.2169 C.2     
   5 N5            -1.1689     1.8949     0.6335 N.2     
   6 N6            -3.3475     1.4823    -0.3306 N.pl3   
   7 C7            -3.7259     2.8279    -0.3325 C.ar    
   8 C8            -5.0711     3.1726    -0.3686 C.ar    
   9 C9            -5.4415     4.5030    -0.3704 C.ar    
  10 C10           -4.4750     5.4916    -0.3368 C.ar    
  11 C11           -3.1349     5.1518    -0.3012 C.ar    
  12 C12           -2.7578     3.8233    -0.2925 C.ar    
  13 C13            0.9275    -0.8142     1.6186 C.ar    
  14 C14            2.2375    -0.6249     1.1793 C.ar    
  15 C15            0.6457    -1.8297     2.5410 C.ar    
  16 C16            1.6678    -2.6400     3.0041 C.ar    
  17 C17            2.9626    -2.4465     2.5574 C.ar    
  18 C18            3.2461    -1.4412     1.6504 C.ar    
  19 C19            1.0587     2.1052     1.6125 C.ar    
  20 C20            1.5617     3.1642     0.8480 C.ar    
  21 C21            1.6411     1.8047     2.8428 C.ar    
  22 C22            2.7115     2.5478     3.2976 C.ar    
  23 C23            3.2095     3.5907     2.5368 C.ar    
  24 C24            2.6366     3.9011     1.3176 C.ar    
  25 O25           -0.6266    -2.0185     2.9801 O.3     
  26 C26           -0.8385    -3.0734     3.9205 C.3     
  27 O27            0.9982     3.4680    -0.3500 O.3     
  28 C28            1.6609     4.4508    -1.1480 C.3     
  29 H29           -3.9356     0.8126    -0.7132 H       
  30 H30           -5.8263     2.4011    -0.3956 H       
  31 H31           -6.4871     4.7718    -0.3985 H       
  32 H32           -4.7674     6.5312    -0.3387 H       
  33 H33           -2.3826     5.9263    -0.2757 H       
  34 H34           -1.7111     3.5587    -0.2647 H       
  35 H35            2.4625     0.1589     0.4712 H       
  36 H36            1.4541    -3.4241     3.7155 H       
  37 H37            3.7571    -3.0808     2.9221 H       
  38 H38            4.2597    -1.2971     1.3064 H       
  39 H39            1.2548     0.9917     3.4396 H       
  40 H40            3.1619     2.3146     4.2511 H       
  41 H41            4.0474     4.1678     2.8992 H       
  42 H42            3.0301     4.7163     0.7285 H       
  43 H43           -0.2445    -2.8872     4.8153 H       
  44 H44           -1.8945    -3.1153     4.1876 H       
  45 H45           -0.5383    -4.0222     3.4760 H       
  46 H46            1.6424     5.4107    -0.6319 H       
  47 H47            2.6946     4.1474    -1.3139 H       
  48 H48            1.1513     4.5441    -2.1070 H       
  49 Br49           9.2597    11.5312     9.8153 Br      
@<TRIPOS>BOND
   1    1    2 2
   2    1   19 1
   3    1    5 1
   4    2    3 1
   5    2   13 1
   6    3    4 1
   7    4    5 2
   8    4    6 1
   9    6    7 1
  10    6   29 1
  11    7    8 ar
  12    7   12 ar
  13    8    9 ar
  14    8   30 1
  15    9   10 ar
  16    9   31 1
  17   10   11 ar
  18   10   32 1
  19   11   12 ar
  20   11   33 1
  21   12   34 1
  22   13   14 ar
  23   13   15 ar
  24   14   18 ar
  25   14   35 1
  26   15   16 ar
  27   15   25 1
  28   16   17 ar
  29   16   36 1
  30   17   18 ar
  31   17   37 1
  32   18   38 1
  33   19   20 ar
  34   19   21 ar
  35   20   27 1
  36   20   24 ar
  37   21   22 ar
  38   21   39 1
  39   22   23 ar
  40   22   40 1
  41   23   24 ar
  42   23   41 1
  43   24   42 1
  44   25   26 1
  45   26   43 1
  46   26   44 1
  47   26   45 1
  48   27   28 1
  49   28   46 1
  50   28   47 1
  51   28   48 1

#	End of record

