#	Name: ASD02508194
#	Creating user name:	WinNT
#	Creation time:	15. 06. 2019 20:23

#	Modifying user name:	WinNT
#	Modification time:	15. 06. 2019 20:23

#	Program:	/corina/corina34_cracker 3.40 0067  02.08.2006

@<TRIPOS>MOLECULE
ASD02508194
  53   56    0    0    0
SMALL
NO_CHARGES


@<TRIPOS>ATOM
   1 C1             0.3943     0.5617     0.3484 C.ar    
   2 C2             0.1336    -0.7864     0.1039 C.ar    
   3 C3            -1.1774    -1.2296     0.0249 C.ar    
   4 C4            -2.2178    -0.3359     0.1883 C.ar    
   5 C5            -1.9580     1.0019     0.4304 C.ar    
   6 C6            -0.6549     1.4519     0.5163 C.ar    
   7 S7            -3.8835    -0.9015     0.0875 S.o2    
   8 N8            -4.5761    -0.6532     1.5710 N.am    
   9 C9            -5.4254     0.5593     1.8241 C.3     
  10 N10            1.7817     0.7014     0.3722 N.am    
  11 C11            2.3153    -0.5162     0.1506 C.2     
  12 O12            1.3300    -1.4133    -0.0112 O.3     
  13 O13           -4.5489    -0.0305    -0.8168 O.2     
  14 O14           -3.8189    -2.3093    -0.0947 O.2     
  15 C15            2.5235     1.9445     0.5971 C.3     
  16 O16            3.5049    -0.7638     0.1043 O.2     
  17 C17           -6.8034     0.0854     2.0023 C.3     
  18 N18           -6.9743    -0.8794     3.0872 N.3     
  19 C19           -3.1001     1.9692     0.6063 C.3     
  20 C20           -8.2201    -0.7384     3.6876 C.ar    
  21 N21           -9.0599     0.1860     3.2473 N.ar    
  22 C22           -8.5757    -1.5734     4.7417 C.ar    
  23 C23           -9.8186    -1.4222     5.3300 C.ar    
  24 C24          -10.6671    -0.4373     4.8423 C.ar    
  25 C25          -10.2514     0.3526     3.7890 C.ar    
  26 C26           -4.3797    -1.5968     2.6357 C.3     
  27 C27           -5.4218    -2.7387     2.7388 C.3     
  28 C28           -6.8342    -2.1821     2.4886 C.3     
  29 C29          -12.0305    -0.2370     5.4522 C.3     
  30 F30          -11.9424     0.6887     6.4975 F       
  31 F31          -12.9115     0.2432     4.4772 F       
  32 F32          -12.5034    -1.4567     5.9480 F       
  33 H33           -1.3851    -2.2724    -0.1645 H       
  34 H34           -0.4541     2.4960     0.7057 H       
  35 H35           -5.0874     1.0688     2.7264 H       
  36 H36           -5.3718     1.2359     0.9711 H       
  37 H37            2.7086     2.0693     1.6640 H       
  38 H38            3.4744     1.9014     0.0659 H       
  39 H39            1.9395     2.7879     0.2286 H       
  40 H40           -7.4422     0.9459     2.2009 H       
  41 H41           -7.1328    -0.3781     1.0723 H       
  42 H42           -3.4445     1.9407     1.6400 H       
  43 H43           -2.7635     2.9769     0.3630 H       
  44 H44           -3.9186     1.6895    -0.0571 H       
  45 H45           -7.8909    -2.3297     5.0959 H       
  46 H46          -10.1222    -2.0561     6.1499 H       
  47 H47          -10.9082     1.1199     3.4065 H       
  48 H48           -3.3945    -2.0467     2.5129 H       
  49 H49           -4.3815    -1.0498     3.5785 H       
  50 H50           -5.1967    -3.5033     1.9953 H       
  51 H51           -5.3801    -3.1790     3.7350 H       
  52 H52           -7.5704    -2.8593     2.9215 H       
  53 H53           -7.0048    -2.1061     1.4147 H       
@<TRIPOS>BOND
   1    1    2 ar
   2    1   10 1
   3    1    6 ar
   4    2    3 ar
   5    2   12 1
   6    3    4 ar
   7    3   33 1
   8    4    5 ar
   9    4    7 1
  10    5    6 ar
  11    5   19 1
  12    6   34 1
  13    7    8 am
  14    7   13 2
  15    7   14 2
  16    8    9 1
  17    8   26 1
  18    9   17 1
  19    9   35 1
  20    9   36 1
  21   10   11 am
  22   10   15 1
  23   11   12 1
  24   11   16 2
  25   15   37 1
  26   15   38 1
  27   15   39 1
  28   17   18 1
  29   17   40 1
  30   17   41 1
  31   18   20 1
  32   18   28 1
  33   19   42 1
  34   19   43 1
  35   19   44 1
  36   20   21 ar
  37   20   22 ar
  38   21   25 ar
  39   22   23 ar
  40   22   45 1
  41   23   24 ar
  42   23   46 1
  43   24   25 ar
  44   24   29 1
  45   25   47 1
  46   26   27 1
  47   26   48 1
  48   26   49 1
  49   27   28 1
  50   27   50 1
  51   27   51 1
  52   28   52 1
  53   28   53 1
  54   29   30 1
  55   29   31 1
  56   29   32 1

#	End of record

