#	Name: ASD01911288
#	Creating user name:	WinNT
#	Creation time:	15. 06. 2019 19:57

#	Modifying user name:	WinNT
#	Modification time:	15. 06. 2019 19:57

#	Program:	/corina/corina34_cracker 3.40 0067  02.08.2006

@<TRIPOS>MOLECULE
ASD01911288
  33   35    0    0    0
SMALL
NO_CHARGES


@<TRIPOS>ATOM
   1 C1            -0.0167     1.3797     0.0096 C.ar    
   2 C2             0.0021    -0.0041     0.0020 C.ar    
   3 C3             1.2058    -0.6867    -0.0132 C.ar    
   4 C4             2.3967     0.0087    -0.0209 C.ar    
   5 C5             2.3859     1.4064    -0.0133 C.ar    
   6 C6             1.1661     2.0888     0.0021 C.ar    
   7 C7             3.6183     2.1356    -0.0207 C.1     
   8 C8             4.6286     2.7335    -0.0268 C.1     
   9 C9             5.8610     3.4627    -0.0342 C.ar    
  10 C10            5.8445     4.8610    -0.0265 C.ar    
  11 C11            7.0188     5.5647    -0.0343 C.ar    
  12 C12            8.2345     4.8727    -0.0446 C.ar    
  13 C13            8.2529     3.4718    -0.0541 C.ar    
  14 C14            7.0803     2.7741    -0.0433 C.ar    
  15 C15            6.9679     7.0683    -0.0385 C.3     
  16 C16            8.2649     7.6671     0.4986 C.3     
  17 C17            9.4515     7.1074    -0.2969 C.3     
  18 C18            9.5066     5.6160    -0.0397 C.2     
  19 O19           10.5616     5.0529     0.1638 O.2     
  20 H20           -0.9600     1.9055     0.0170 H       
  21 H21           -0.9274    -0.5540     0.0083 H       
  22 H22            1.2126    -1.7666    -0.0187 H       
  23 H23            3.3354    -0.5254    -0.0324 H       
  24 H24            1.1499     3.1687     0.0077 H       
  25 H25            4.9018     5.3878    -0.0148 H       
  26 H26            9.1952     2.9442    -0.0659 H       
  27 H27            7.0925     1.6942    -0.0508 H       
  28 H28            6.8090     7.4174    -1.0588 H       
  29 H29            6.1370     7.3992     0.5845 H       
  30 H30            8.2358     8.7516     0.3934 H       
  31 H31            8.3774     7.4064     1.5510 H       
  32 H32            9.3056     7.2946    -1.3608 H       
  33 H33           10.3767     7.5757     0.0390 H       
@<TRIPOS>BOND
   1    1    2 ar
   2    1    6 ar
   3    1   20 1
   4    2    3 ar
   5    2   21 1
   6    3    4 ar
   7    3   22 1
   8    4    5 ar
   9    4   23 1
  10    5    6 ar
  11    5    7 1
  12    6   24 1
  13    7    8 3
  14    8    9 1
  15    9   10 ar
  16    9   14 ar
  17   10   11 ar
  18   10   25 1
  19   11   12 ar
  20   11   15 1
  21   12   13 ar
  22   12   18 1
  23   13   14 ar
  24   13   26 1
  25   14   27 1
  26   15   16 1
  27   15   28 1
  28   15   29 1
  29   16   17 1
  30   16   30 1
  31   16   31 1
  32   17   18 1
  33   17   32 1
  34   17   33 1
  35   18   19 2

#	End of record

