#	Name: ASD03331181
#	Creating user name:	WinNT
#	Creation time:	15. 06. 2019 20:38

#	Modifying user name:	WinNT
#	Modification time:	15. 06. 2019 20:38

#	Program:	/corina/corina34_cracker 3.40 0067  02.08.2006

@<TRIPOS>MOLECULE
ASD03331181
  49   52    0    0    0
SMALL
NO_CHARGES


@<TRIPOS>ATOM
   1 N1            -0.0459     1.4955     0.5698 N.am    
   2 C2             0.0019     0.1506     1.1630 C.3     
   3 C3             0.5966    -0.8151     0.1325 C.3     
   4 N4             1.8894    -0.2949    -0.3323 N.3     
   5 C5             1.7288     0.9912    -1.0237 C.3     
   6 C6             1.1805     2.0309    -0.0406 C.3     
   7 C7            -1.1849     2.2161     0.5802 C.2     
   8 O8            -2.2139     1.7206     0.9972 O.2     
   9 N9            -1.1831     3.4859     0.1284 N.am    
  10 C10           -2.3861     4.1969     0.0329 C.ar    
  11 C11           -2.4019     5.5684     0.2480 C.ar    
  12 C12           -3.5891     6.2678     0.1529 C.ar    
  13 C13           -4.7631     5.6019    -0.1563 C.ar    
  14 C14           -4.7495     4.2341    -0.3712 C.ar    
  15 C15           -3.5634     3.5320    -0.2827 C.ar    
  16 C16            2.5724    -1.2723    -1.1904 C.3     
  17 C17            3.7649    -0.6214    -1.8425 C.ar    
  18 C18            5.0027    -0.6608    -1.2041 C.ar    
  19 C19            6.0997    -0.0824    -1.7656 C.ar    
  20 C20            5.9855     0.5644    -3.0076 C.ar    
  21 C21            4.7264     0.6040    -3.6573 C.ar    
  22 C22            3.6178    -0.0086    -3.0491 C.ar    
  23 C23            7.0953     1.1734    -3.6182 C.ar    
  24 C24            6.9469     1.7911    -4.8217 C.ar    
  25 C25            5.7088     1.8300    -5.4607 C.ar    
  26 C26            4.6122     1.2513    -4.8996 C.ar    
  27 F27           -5.9235     6.2877    -0.2480 F       
  28 H28            0.6284     0.1658     2.0548 H       
  29 H29           -1.0063    -0.1698     1.4258 H       
  30 H30            0.7419    -1.7929     0.5918 H       
  31 H31           -0.0837    -0.9079    -0.7140 H       
  32 H32            2.6952     1.3234    -1.4030 H       
  33 H33            1.0327     0.8732    -1.8542 H       
  34 H34            0.9515     2.9537    -0.5736 H       
  35 H35            1.9203     2.2269     0.7355 H       
  36 H36           -0.3488     3.9073    -0.1307 H       
  37 H37           -1.4865     6.0880     0.4900 H       
  38 H38           -3.6018     7.3347     0.3202 H       
  39 H39           -5.6662     3.7165    -0.6123 H       
  40 H40           -3.5524     2.4658    -0.4548 H       
  41 H41            2.9044    -2.1167    -0.5864 H       
  42 H42            1.8846    -1.6238    -1.9594 H       
  43 H43            5.0932    -1.1573    -0.2493 H       
  44 H44            7.0526    -0.1202    -1.2588 H       
  45 H45            2.6523     0.0136    -3.5325 H       
  46 H46            8.0608     1.1515    -3.1347 H       
  47 H47            7.8012     2.2585    -5.2886 H       
  48 H48            5.6183     2.3268    -6.4153 H       
  49 H49            3.6593     1.2891    -5.4065 H       
@<TRIPOS>BOND
   1    1    2 1
   2    1    6 1
   3    1    7 am
   4    2    3 1
   5    2   28 1
   6    2   29 1
   7    3    4 1
   8    3   30 1
   9    3   31 1
  10    4    5 1
  11    4   16 1
  12    5    6 1
  13    5   32 1
  14    5   33 1
  15    6   34 1
  16    6   35 1
  17    7    8 2
  18    7    9 am
  19    9   10 1
  20    9   36 1
  21   10   11 ar
  22   10   15 ar
  23   11   12 ar
  24   11   37 1
  25   12   13 ar
  26   12   38 1
  27   13   14 ar
  28   13   27 1
  29   14   15 ar
  30   14   39 1
  31   15   40 1
  32   16   17 1
  33   16   41 1
  34   16   42 1
  35   17   18 ar
  36   17   22 ar
  37   18   19 ar
  38   18   43 1
  39   19   20 ar
  40   19   44 1
  41   20   21 ar
  42   20   23 ar
  43   21   22 ar
  44   21   26 ar
  45   22   45 1
  46   23   24 ar
  47   23   46 1
  48   24   25 ar
  49   24   47 1
  50   25   26 ar
  51   25   48 1
  52   26   49 1

#	End of record

