#	Name: ASD03731277
#	Creating user name:	WinNT
#	Creation time:	15. 06. 2019 20:45

#	Modifying user name:	WinNT
#	Modification time:	15. 06. 2019 20:45

#	Program:	/corina/corina34_cracker 3.40 0067  02.08.2006

@<TRIPOS>MOLECULE
ASD03731277
  57   62    0    0    0
SMALL
NO_CHARGES


@<TRIPOS>ATOM
   1 N1            -0.0162     1.3436     0.0094 N.am    
   2 C2            -0.1433     0.0021     0.0365 C.2     
   3 O3             0.8433    -0.7038    -0.0460 O.2     
   4 N4            -1.3639    -0.5570     0.1550 N.am    
   5 C5            -1.5020    -2.0151     0.1844 C.3     
   6 C6            -2.9801    -2.3847     0.3244 C.3     
   7 O7             1.4429    -7.7580     2.1285 O.3     
   8 C8             1.7358    -9.1485     2.3608 C.3     
   9 O9             0.5443    -9.6478     2.9963 O.3     
  10 C10           -0.4696    -8.8477     2.5527 C.ar    
  11 C11            0.0836    -7.6854     2.0201 C.ar    
  12 C12           -1.8421    -9.0204     2.5594 C.ar    
  13 C13           -2.6789    -8.0382     2.0382 C.ar    
  14 C14           -2.1150    -6.8779     1.5164 C.ar    
  15 C15           -0.7466    -6.7054     1.5027 C.ar    
  16 O16           -4.0386    -8.0171     1.9331 O.3     
  17 C17           -3.2593    -6.0108     1.0641 C.3     
  18 C18           -4.4786    -6.6600     1.7328 C.3     
  19 N19           -3.1182    -3.8429     0.3538 N.am    
  20 C20           -3.0874    -4.5790     1.4826 C.2     
  21 C21           -3.3930    -5.9753    -0.4295 C.ar    
  22 C22           -3.5732    -6.9436    -1.3919 C.ar    
  23 C23           -3.6630    -6.5869    -2.7256 C.ar    
  24 C24           -3.5706    -5.2558    -3.0897 C.ar    
  25 C25           -3.3891    -4.2823    -2.1296 C.ar    
  26 C26           -3.2981    -4.6322    -0.7846 C.ar    
  27 O27           -2.9484    -4.1659     2.6144 O.2     
  28 C28            1.2563     1.9260     0.0081 C.ar    
  29 C29            1.4781     3.1115    -0.6808 C.ar    
  30 C30            2.7347     3.6843    -0.6807 C.ar    
  31 C31            3.7724     3.0788     0.0039 C.ar    
  32 C32            3.5553     1.8974     0.6910 C.ar    
  33 C33            2.2979     1.3229     0.6999 C.ar    
  34 C34            0.3485     3.7720    -1.4282 C.3     
  35 Cl35           4.8610     1.1403     1.5487 Cl      
  36 H36           -0.8067     1.9052    -0.0131 H       
  37 H37           -2.1509     0.0062     0.2208 H       
  38 H38           -1.1083    -2.4361    -0.7407 H       
  39 H39           -0.9455    -2.4158     1.0317 H       
  40 H40           -3.3738    -1.9637     1.2495 H       
  41 H41           -3.5366    -1.9840    -0.5229 H       
  42 H42            1.9121    -9.6655     1.4176 H       
  43 H43            2.5955    -9.2533     3.0227 H       
  44 H44           -2.2671    -9.9235     2.9719 H       
  45 H45           -0.3216    -5.8034     1.0877 H       
  46 H46           -5.3453    -6.6276     1.0725 H       
  47 H47           -4.6988    -6.1797     2.6862 H       
  48 H48           -3.6448    -7.9824    -1.1052 H       
  49 H49           -3.8052    -7.3460    -3.4805 H       
  50 H50           -3.6406    -4.9774    -4.1309 H       
  51 H51           -3.3174    -3.2451    -2.4218 H       
  52 H52            2.9073     4.6061    -1.2163 H       
  53 H53            4.7543     3.5287     0.0021 H       
  54 H54            2.1272     0.4036     1.2404 H       
  55 H55           -0.1683     4.4665    -0.7659 H       
  56 H56            0.7480     4.3155    -2.2844 H       
  57 H57           -0.3514     3.0117    -1.7749 H       
@<TRIPOS>BOND
   1    1    2 am
   2    1   28 1
   3    1   36 1
   4    2    3 2
   5    2    4 am
   6    4    5 1
   7    4   37 1
   8    5    6 1
   9    5   38 1
  10    5   39 1
  11    6   19 1
  12    6   40 1
  13    6   41 1
  14    7    8 1
  15    7   11 1
  16    8    9 1
  17    8   42 1
  18    8   43 1
  19    9   10 1
  20   10   11 ar
  21   10   12 ar
  22   11   15 ar
  23   12   13 ar
  24   12   44 1
  25   13   14 ar
  26   13   16 1
  27   14   15 ar
  28   14   17 1
  29   15   45 1
  30   16   18 1
  31   17   18 1
  32   17   20 1
  33   17   21 1
  34   18   46 1
  35   18   47 1
  36   19   20 am
  37   19   26 1
  38   20   27 2
  39   21   22 ar
  40   21   26 ar
  41   22   23 ar
  42   22   48 1
  43   23   24 ar
  44   23   49 1
  45   24   25 ar
  46   24   50 1
  47   25   26 ar
  48   25   51 1
  49   28   29 ar
  50   28   33 ar
  51   29   30 ar
  52   29   34 1
  53   30   31 ar
  54   30   52 1
  55   31   32 ar
  56   31   53 1
  57   32   33 ar
  58   32   35 1
  59   33   54 1
  60   34   55 1
  61   34   56 1
  62   34   57 1

#	End of record

