#	Name: ASD04880083
#	Creating user name:	WinNT
#	Creation time:	15. 06. 2019 20:52

#	Modifying user name:	WinNT
#	Modification time:	15. 06. 2019 20:52

#	Program:	/corina/corina34_cracker 3.40 0067  02.08.2006

@<TRIPOS>MOLECULE
ASD04880083
  41   43    0    0    0
SMALL
NO_CHARGES


@<TRIPOS>ATOM
   1 C1            -0.0144     1.2118     0.0087 C.2     
   2 O2             0.0434    -0.0026     0.0316 O.2     
   3 N3             1.1186     1.9395    -0.0485 N.am    
   4 N4             1.1865     3.3238    -0.1914 N.2     
   5 C5             2.3867     3.7918    -0.2201 C.2     
   6 C6             3.3752     2.6556    -0.0853 C.3     
   7 C7             2.4860     1.4023     0.0362 C.3     
   8 C8             2.7414     5.2155    -0.3628 C.ar    
   9 C9             1.7363     6.1797    -0.4799 C.ar    
  10 C10            2.0745     7.5129    -0.6129 C.ar    
  11 C11            3.4149     7.8936    -0.6301 C.ar    
  12 C12            4.4127     6.9372    -0.5144 C.ar    
  13 C13            4.0829     5.6050    -0.3755 C.ar    
  14 O14            3.7455     9.2056    -0.7611 O.3     
  15 C15            5.1381     9.5260    -0.7711 C.3     
  16 O16            1.0990     8.4536    -0.7276 O.3     
  17 C17           -0.2532     7.9923    -0.7027 C.3     
  18 C18           -1.3268     1.8896     0.0374 C.ar    
  19 C19           -2.5033     1.1429    -0.0541 C.ar    
  20 C20           -3.7269     1.7824    -0.0262 C.ar    
  21 C21           -3.7873     3.1634     0.0920 C.ar    
  22 C22           -2.6231     3.9072     0.1830 C.ar    
  23 C23           -1.3956     3.2784     0.1619 C.ar    
  24 F24           -4.8666     1.0623    -0.1146 F       
  25 Cl25          -5.3284     3.9619     0.1254 Cl      
  26 H26            4.0099     2.5941    -0.9693 H       
  27 H27            3.9800     2.7796     0.8130 H       
  28 H28            2.6453     0.9082     0.9947 H       
  29 H29            2.6799     0.7153    -0.7875 H       
  30 H30            0.6978     5.8833    -0.4668 H       
  31 H31            5.4502     7.2366    -0.5289 H       
  32 H32            4.8617     4.8629    -0.2807 H       
  33 H33            5.6219     9.0174    -1.6050 H       
  34 H34            5.2623    10.6033    -0.8811 H       
  35 H35            5.5922     9.2016     0.1652 H       
  36 H36           -0.4160     7.2994    -1.5282 H       
  37 H37           -0.4463     7.4837     0.2419 H       
  38 H38           -0.9288     8.8418    -0.8027 H       
  39 H39           -2.4564     0.0679    -0.1469 H       
  40 H40           -2.6763     4.9820     0.2745 H       
  41 H41           -0.4888     3.8601     0.2376 H       
@<TRIPOS>BOND
   1    1    2 2
   2    1    3 am
   3    1   18 1
   4    3    4 1
   5    3    7 1
   6    4    5 2
   7    5    6 1
   8    5    8 1
   9    6    7 1
  10    6   26 1
  11    6   27 1
  12    7   28 1
  13    7   29 1
  14    8    9 ar
  15    8   13 ar
  16    9   10 ar
  17    9   30 1
  18   10   11 ar
  19   10   16 1
  20   11   12 ar
  21   11   14 1
  22   12   13 ar
  23   12   31 1
  24   13   32 1
  25   14   15 1
  26   15   33 1
  27   15   34 1
  28   15   35 1
  29   16   17 1
  30   17   36 1
  31   17   37 1
  32   17   38 1
  33   18   19 ar
  34   18   23 ar
  35   19   20 ar
  36   19   39 1
  37   20   21 ar
  38   20   24 1
  39   21   22 ar
  40   21   25 1
  41   22   23 ar
  42   22   40 1
  43   23   41 1

#	End of record

