#	Name: ASD01870493
#	Creating user name:	WinNT
#	Creation time:	15. 06. 2019 19:39

#	Modifying user name:	WinNT
#	Modification time:	15. 06. 2019 19:39

#	Program:	/corina/corina34_cracker 3.40 0067  02.08.2006

@<TRIPOS>MOLECULE
ASD01870493
  39   42    0    0    0
SMALL
NO_CHARGES


@<TRIPOS>ATOM
   1 C1            -0.0307     1.4006    -0.2323 C.ar    
   2 C2            -0.0279     0.0166    -0.1044 C.ar    
   3 C3             1.1502    -0.6608     0.1401 C.ar    
   4 C4             2.3473     0.0293     0.2617 C.ar    
   5 C5             2.3622     1.4085     0.1369 C.ar    
   6 C6             1.1606     2.1036    -0.1129 C.ar    
   7 C7             3.4184     2.4401     0.2057 C.2     
   8 N8             2.8536     3.6448     0.0077 N.am    
   9 C9             1.5274     3.5315    -0.1872 C.2     
  10 O10            0.7598     4.4508    -0.3902 O.2     
  11 O11            4.5983     2.2346     0.4078 O.2     
  12 C12            3.5554     4.8602     0.0057 C.ar    
  13 C13            4.0866     5.3531    -1.1783 C.ar    
  14 C14            4.7774     6.5483    -1.1806 C.ar    
  15 C15            4.9409     7.2586     0.0019 C.ar    
  16 C16            4.4095     6.7664     1.1866 C.ar    
  17 C17            3.7137     5.5728     1.1878 C.ar    
  18 Cl18           3.0433     4.9601     2.6673 Cl      
  19 N19            5.6419     8.4704    -0.0007 N.am    
  20 C20            6.4138     8.8047     1.0524 C.2     
  21 C21            7.2310    10.0287     1.0071 C.2     
  22 O22            6.4353     8.0951     2.0402 O.2     
  23 C23            8.0272    10.4241     2.0260 C.2     
  24 S24            8.8029    11.8825     1.5860 S.3     
  25 C25            8.0201    11.8804     0.0683 C.2     
  26 N26            7.2594    10.8492    -0.0464 N.2     
  27 C27            8.2018     9.6982     3.3351 C.3     
  28 F28           -1.1854     2.0578    -0.4771 F       
  29 H29           -0.9533    -0.5325    -0.1965 H       
  30 H30            1.1395    -1.7363     0.2379 H       
  31 H31            3.2648    -0.5072     0.4533 H       
  32 H32            3.9597     4.8012    -2.0979 H       
  33 H33            5.1911     6.9311    -2.1019 H       
  34 H34            4.5368     7.3184     2.1061 H       
  35 H35            5.5721     9.0695    -0.7604 H       
  36 H36            8.1490    12.6371    -0.6914 H       
  37 H37            9.0235     8.9872     3.2495 H       
  38 H38            8.4248    10.4180     4.1227 H       
  39 H39            7.2835     9.1646     3.5799 H       
@<TRIPOS>BOND
   1    1    2 ar
   2    1    6 ar
   3    1   28 1
   4    2    3 ar
   5    2   29 1
   6    3    4 ar
   7    3   30 1
   8    4    5 ar
   9    4   31 1
  10    5    7 1
  11    5    6 ar
  12    6    9 1
  13    7    8 am
  14    7   11 2
  15    8    9 am
  16    8   12 1
  17    9   10 2
  18   12   13 ar
  19   12   17 ar
  20   13   14 ar
  21   13   32 1
  22   14   15 ar
  23   14   33 1
  24   15   16 ar
  25   15   19 1
  26   16   17 ar
  27   16   34 1
  28   17   18 1
  29   19   20 am
  30   19   35 1
  31   20   21 1
  32   20   22 2
  33   21   23 2
  34   21   26 1
  35   23   24 1
  36   23   27 1
  37   24   25 1
  38   25   26 2
  39   25   36 1
  40   27   37 1
  41   27   38 1
  42   27   39 1

#	End of record

