#	Name: ASD00310066
#	Creating user name:	WinNT
#	Creation time:	15. 06. 2019 18:33

#	Modifying user name:	WinNT
#	Modification time:	15. 06. 2019 18:33

#	Program:	/corina/corina34_cracker 3.40 0067  02.08.2006

@<TRIPOS>MOLECULE
ASD00310066
  56   58    0    0    0
SMALL
NO_CHARGES


@<TRIPOS>ATOM
   1 N1            -0.0179     1.4660     0.0101 N.am    
   2 C2             0.0021    -0.0041     0.0020 C.3     
   3 C3             1.4817    -0.4423     0.0128 C.3     
   4 C4             2.2073     0.7983     0.5975 C.3     
   5 C5             1.3719     1.9577    -0.0005 C.3     
   6 C6            -1.1236     2.2365     0.0197 C.2     
   7 O7            -2.2237     1.7205     0.0223 O.2     
   8 O8            -1.0093     3.5780     0.0264 O.3     
   9 C9             1.6759    -1.6424     0.9033 C.ar    
  10 C10            2.1985    -2.8118     0.3799 C.ar    
  11 C11            2.3784    -3.9136     1.1906 C.ar    
  12 C12            2.0331    -3.8470     2.5394 C.ar    
  13 C13            1.5075    -2.6663     3.0615 C.ar    
  14 C14            1.3364    -1.5690     2.2427 C.ar    
  15 O15            1.8879    -5.0498     4.8501 O.3     
  16 B16            2.2349    -5.0974     3.4671 Du      
  17 O17            2.7704    -6.3154     2.9521 O.3     
  18 C18            1.9888    -7.4596     3.3173 C.3     
  19 C19            1.7868    -7.4620     4.8355 C.3     
  20 C20            1.0871    -6.1664     5.2567 C.3     
  21 C21            0.9237    -8.6610     5.2337 C.3     
  22 C22            3.1461    -7.5575     5.5312 C.3     
  23 C23           -2.2424     4.3446     0.0367 C.3     
  24 C24           -3.0502     3.9946     1.2880 C.3     
  25 C25           -1.9138     5.8389     0.0432 C.3     
  26 C26           -3.0624     4.0082    -1.2104 C.3     
  27 H27           -0.5043    -0.3865     0.8883 H       
  28 H28           -0.4883    -0.3765    -0.8974 H       
  29 H29            1.8295    -0.6512    -0.9989 H       
  30 H30            2.1582     0.8025     1.6863 H       
  31 H31            3.2409     0.8441     0.2544 H       
  32 H32            1.6918     2.1688    -1.0209 H       
  33 H33            1.4634     2.8499     0.6189 H       
  34 H34            2.4657    -2.8623    -0.6653 H       
  35 H35            2.7857    -4.8261     0.7809 H       
  36 H36            1.2380    -2.6093     4.1058 H       
  37 H37            0.9327    -0.6525     2.6470 H       
  38 H38            1.0197    -7.4129     2.8205 H       
  39 H39            2.5105    -8.3685     3.0174 H       
  40 H40            0.9657    -6.1530     6.3398 H       
  41 H41            0.1095    -6.1076     4.7780 H       
  42 H42            1.4210    -9.5828     4.9320 H       
  43 H43            0.7801    -8.6624     6.3142 H       
  44 H44           -0.0449    -8.5919     4.7385 H       
  45 H45            3.7601    -6.7026     5.2479 H       
  46 H46            3.0020    -7.5592     6.6116 H       
  47 H47            3.6447    -8.4787     5.2297 H       
  48 H48           -2.4659     4.2343     2.1764 H       
  49 H49           -3.9758     4.5701     1.2957 H       
  50 H50           -3.2842     2.9300     1.2834 H       
  51 H51           -1.3383     6.0883    -0.8483 H       
  52 H52           -2.8395     6.4144     0.0508 H       
  53 H53           -1.3296     6.0786     0.9316 H       
  54 H54           -3.2965     2.9436    -1.2150 H       
  55 H55           -3.9881     4.5837    -1.2027 H       
  56 H56           -2.4869     4.2575    -2.1019 H       
@<TRIPOS>BOND
   1    1    2 1
   2    1    5 1
   3    1    6 am
   4    2    3 1
   5    2   27 1
   6    2   28 1
   7    3    4 1
   8    3    9 1
   9    3   29 1
  10    4    5 1
  11    4   30 1
  12    4   31 1
  13    5   32 1
  14    5   33 1
  15    6    7 2
  16    6    8 1
  17    8   23 1
  18    9   10 ar
  19    9   14 ar
  20   10   11 ar
  21   10   34 1
  22   11   12 ar
  23   11   35 1
  24   12   13 ar
  25   12   16 1
  26   13   14 ar
  27   13   36 1
  28   14   37 1
  29   15   16 1
  30   15   20 1
  31   16   17 1
  32   17   18 1
  33   18   19 1
  34   18   38 1
  35   18   39 1
  36   19   20 1
  37   19   21 1
  38   19   22 1
  39   20   40 1
  40   20   41 1
  41   21   42 1
  42   21   43 1
  43   21   44 1
  44   22   45 1
  45   22   46 1
  46   22   47 1
  47   23   24 1
  48   23   26 1
  49   23   25 1
  50   24   48 1
  51   24   49 1
  52   24   50 1
  53   25   51 1
  54   25   52 1
  55   25   53 1
  56   26   54 1
  57   26   55 1
  58   26   56 1

#	End of record

