#	Name: ASD01940381
#	Creating user name:	WinNT
#	Creation time:	15. 06. 2019 20:12

#	Modifying user name:	WinNT
#	Modification time:	15. 06. 2019 20:12

#	Program:	/corina/corina34_cracker 3.40 0067  02.08.2006

@<TRIPOS>MOLECULE
ASD01940381
  41   43    0    0    0
SMALL
NO_CHARGES


@<TRIPOS>ATOM
   1 C1             0.3089     1.8716    -0.2839 C.ar    
   2 C2             0.1422     0.5384     0.0872 C.ar    
   3 C3             1.2317    -0.2838     0.1673 C.ar    
   4 C4             2.5040     0.2027    -0.1187 C.ar    
   5 C5             2.6846     1.5277    -0.4889 C.ar    
   6 C6             1.5906     2.3695    -0.5746 C.ar    
   7 O7             1.7258     3.6678    -0.9326 O.3     
   8 C8             0.6624     4.4807    -1.0136 C.2     
   9 N9            -0.5892     4.0717    -0.7495 N.am    
  10 C10           -0.8354     2.7954    -0.3775 C.2     
  11 C11           -1.6996     5.0210    -0.8594 C.3     
  12 C12           -2.2512     4.9886    -2.2615 C.ar    
  13 C13           -3.4544     4.3580    -2.5166 C.ar    
  14 C14           -3.9609     4.3285    -3.8024 C.ar    
  15 C15           -3.2645     4.9293    -4.8348 C.ar    
  16 C16           -2.0612     5.5599    -4.5822 C.ar    
  17 C17           -1.5559     5.5954    -3.2934 C.ar    
  18 O18           -1.9659     2.4204    -0.1328 O.2     
  19 O19            0.8390     5.6377    -1.3396 O.2     
  20 O20            3.5767    -0.6255    -0.0345 O.3     
  21 C21            4.3688    -0.4921     1.0469 C.2     
  22 O22            4.0578     0.2743     1.9371 O.2     
  23 N23            5.5064    -1.2086     1.1414 N.am    
  24 C24            6.3679    -1.0635     2.3173 C.3     
  25 C25            5.8815    -2.1325     0.0681 C.3     
  26 F26           -0.3825     6.2169    -3.0442 F       
  27 H27           -0.8431     0.1566     0.3107 H       
  28 H28            1.1044    -1.3171     0.4546 H       
  29 H29            3.6743     1.8997    -0.7090 H       
  30 H30           -2.4837     4.7461    -0.1540 H       
  31 H31           -1.3426     6.0256    -0.6326 H       
  32 H32           -3.9989     3.8878    -1.7111 H       
  33 H33           -4.9011     3.8356    -4.0008 H       
  34 H34           -3.6610     4.9054    -5.8391 H       
  35 H35           -1.5173     6.0288    -5.3888 H       
  36 H36            6.0670    -1.7826     3.0792 H       
  37 H37            7.4042    -1.2472     2.0335 H       
  38 H38            6.2737    -0.0527     2.7143 H       
  39 H39            5.1248    -2.1050    -0.7160 H       
  40 H40            6.8450    -1.8361    -0.3464 H       
  41 H41            5.9536    -3.1439     0.4680 H       
@<TRIPOS>BOND
   1    1    2 ar
   2    1    6 ar
   3    1   10 1
   4    2    3 ar
   5    2   27 1
   6    3    4 ar
   7    3   28 1
   8    4    5 ar
   9    4   20 1
  10    5    6 ar
  11    5   29 1
  12    6    7 1
  13    7    8 1
  14    8    9 am
  15    8   19 2
  16    9   10 am
  17    9   11 1
  18   10   18 2
  19   11   12 1
  20   11   30 1
  21   11   31 1
  22   12   13 ar
  23   12   17 ar
  24   13   14 ar
  25   13   32 1
  26   14   15 ar
  27   14   33 1
  28   15   16 ar
  29   15   34 1
  30   16   17 ar
  31   16   35 1
  32   17   26 1
  33   20   21 1
  34   21   22 2
  35   21   23 am
  36   23   24 1
  37   23   25 1
  38   24   36 1
  39   24   37 1
  40   24   38 1
  41   25   39 1
  42   25   40 1
  43   25   41 1

#	End of record

