#	Name: ASD03331380
#	Creating user name:	WinNT
#	Creation time:	15. 06. 2019 20:39

#	Modifying user name:	WinNT
#	Modification time:	15. 06. 2019 20:39

#	Program:	/corina/corina34_cracker 3.40 0067  02.08.2006

@<TRIPOS>MOLECULE
ASD03331380
  61   63    0    0    0
SMALL
NO_CHARGES


@<TRIPOS>ATOM
   1 C1            -0.7139     1.6541     0.7577 C.2     
   2 C2            -0.5561     0.3183     0.5785 C.2     
   3 C3             0.7500    -0.4088     0.7886 C.3     
   4 C4             1.8625     0.6494     0.8511 C.3     
   5 C5             1.4163     1.7839     1.7784 C.3     
   6 N6             0.3087     2.5287     1.1618 N.3     
   7 N7            -2.6762     0.8568     0.1293 N.2     
   8 N8            -1.7533    -0.1979     0.1911 N.am    
   9 C9            -2.0594     1.9687     0.4729 C.2     
  10 C10           -2.0076    -1.4924    -0.0847 C.2     
  11 O11           -1.1209    -2.3183     0.0049 O.2     
  12 N12           -3.2456    -1.8709    -0.4598 N.am    
  13 C13           -0.2082     3.5569     2.0747 C.3     
  14 C14            0.9614     4.2537     2.7728 C.3     
  15 O15            1.7390     4.9629     1.8061 O.3     
  16 C16           -4.6968    -3.3700    -1.6990 C.2     
  17 C17           -3.5221    -3.2780    -0.7596 C.3     
  18 C18           -3.8469    -4.0215     0.5376 C.3     
  19 C19           -5.0595    -3.3722     1.2076 C.3     
  20 O20           -5.5498    -2.5079    -1.6897 O.2     
  21 N21           -4.7995    -4.4104    -2.5496 N.am    
  22 C22           -5.9947    -4.5595    -3.3836 C.3     
  23 C23           -4.1618    -5.4850     0.2214 C.3     
  24 C24           -2.6443    -3.9508     1.4808 C.3     
  25 C25           -2.6709     3.3181     0.5405 C.ar    
  26 C26           -2.0326     4.4052    -0.0544 C.ar    
  27 C27           -2.6062     5.6602     0.0112 C.ar    
  28 C28           -3.8154     5.8383     0.6687 C.ar    
  29 C29           -4.4511     4.7602     1.2608 C.ar    
  30 C30           -3.8880     3.5017     1.1939 C.ar    
  31 F31           -4.3735     7.0671     0.7315 F       
  32 F32           -1.9893     6.7152    -0.5647 F       
  33 H33            0.7168    -0.9668     1.7244 H       
  34 H34            0.9328    -1.0895    -0.0430 H       
  35 H35            2.7748     0.1974     1.2401 H       
  36 H36            2.0463     1.0452    -0.1477 H       
  37 H37            1.0858     1.3657     2.7291 H       
  38 H38            2.2539     2.4593     1.9530 H       
  39 H39           -3.9535    -1.2116    -0.5313 H       
  40 H40           -0.7824     4.2902     1.5084 H       
  41 H41           -0.8509     3.0901     2.8212 H       
  42 H42            0.5769     4.9540     3.5144 H       
  43 H43            1.5860     3.5089     3.2660 H       
  44 H44            2.4993     5.4298     2.1788 H       
  45 H45           -2.6467    -3.7286    -1.2272 H       
  46 H46           -5.9162    -3.4225     0.5356 H       
  47 H47           -5.2909    -3.9019     2.1317 H       
  48 H48           -4.8352    -2.3295     1.4329 H       
  49 H49           -4.0821    -5.0605    -2.6097 H       
  50 H50           -6.8735    -4.6532    -2.7456 H       
  51 H51           -6.1024    -3.6841    -4.0241 H       
  52 H52           -5.8975    -5.4521    -4.0016 H       
  53 H53           -3.3399    -5.9185    -0.3484 H       
  54 H54           -4.2905    -6.0381     1.1518 H       
  55 H55           -5.0793    -5.5409    -0.3644 H       
  56 H56           -2.4200    -2.9082     1.7060 H       
  57 H57           -2.8758    -4.4805     2.4049 H       
  58 H58           -1.7805    -4.4134     1.0034 H       
  59 H59           -1.0913     4.2666    -0.5654 H       
  60 H60           -5.3918     4.9032     1.7717 H       
  61 H61           -4.3876     2.6610     1.6521 H       
@<TRIPOS>BOND
   1    1    2 2
   2    1    6 1
   3    1    9 1
   4    2    3 1
   5    2    8 1
   6    3    4 1
   7    3   33 1
   8    3   34 1
   9    4    5 1
  10    4   35 1
  11    4   36 1
  12    5    6 1
  13    5   37 1
  14    5   38 1
  15    6   13 1
  16    7    8 1
  17    7    9 2
  18    8   10 am
  19    9   25 1
  20   10   11 2
  21   10   12 am
  22   12   17 1
  23   12   39 1
  24   13   14 1
  25   13   40 1
  26   13   41 1
  27   14   15 1
  28   14   42 1
  29   14   43 1
  30   15   44 1
  31   16   20 2
  32   16   21 am
  33   16   17 1
  34   17   18 1
  35   17   45 1
  36   18   19 1
  37   18   23 1
  38   18   24 1
  39   19   46 1
  40   19   47 1
  41   19   48 1
  42   21   22 1
  43   21   49 1
  44   22   50 1
  45   22   51 1
  46   22   52 1
  47   23   53 1
  48   23   54 1
  49   23   55 1
  50   24   56 1
  51   24   57 1
  52   24   58 1
  53   25   26 ar
  54   25   30 ar
  55   26   27 ar
  56   26   59 1
  57   27   28 ar
  58   27   32 1
  59   28   29 ar
  60   28   31 1
  61   29   30 ar
  62   29   60 1
  63   30   61 1

#	End of record

