#	Name: ASD03731533
#	Creating user name:	WinNT
#	Creation time:	15. 06. 2019 20:45

#	Modifying user name:	WinNT
#	Modification time:	15. 06. 2019 20:45

#	Program:	/corina/corina34_cracker 3.40 0067  02.08.2006

@<TRIPOS>MOLECULE
ASD03731533
  60   66    0    0    0
SMALL
NO_CHARGES


@<TRIPOS>ATOM
   1 C1             1.4593    -1.2994    -2.4377 C.2     
   2 C2             0.5288    -1.2074    -1.2929 C.ar    
   3 C3             0.7343    -0.2503    -0.2975 C.ar    
   4 C4            -0.1381    -0.1695     0.7679 C.ar    
   5 C5            -1.2147    -1.0349     0.8516 C.ar    
   6 C6            -1.4241    -1.9856    -0.1313 C.ar    
   7 C7            -0.5624    -2.0733    -1.2052 C.ar    
   8 O8             2.3641    -0.4956    -2.5516 O.2     
   9 N9             1.3079    -2.2777    -3.3522 N.am    
  10 C10            1.9068     0.6923    -0.3866 C.3     
  11 O11            0.1152    -0.6556     6.4446 O.3     
  12 C12            0.0709    -0.3197     7.8439 C.3     
  13 O13            1.3504     0.2931     8.0895 O.3     
  14 C14            1.7363     0.8262     6.8930 C.ar    
  15 C15            0.9772     0.2416     5.8818 C.ar    
  16 C16            2.6889     1.7791     6.5798 C.ar    
  17 C17            2.8976     2.1594     5.2575 C.ar    
  18 C18            2.1389     1.5624     4.2553 C.ar    
  19 C19            1.1841     0.6164     4.5649 C.ar    
  20 O20            3.7619     3.0795     4.7410 O.3     
  21 C21            2.6091     2.1520     2.9525 C.3     
  22 C22            3.9308     2.8339     3.3315 C.3     
  23 N23            2.0135     1.4580     0.8578 N.am    
  24 C24            2.8026     1.1062     1.8925 C.2     
  25 C25            1.6227     3.1243     2.3768 C.ar    
  26 C26            1.0454     4.2835     2.8449 C.ar    
  27 C27            0.1464     4.9778     2.0551 C.ar    
  28 C28           -0.1714     4.5045     0.7950 C.ar    
  29 C29            0.4035     3.3434     0.3220 C.ar    
  30 C30            1.3099     2.6382     1.1100 C.ar    
  31 O31            3.5270     0.1355     1.9549 O.2     
  32 C32            2.0659    -2.2614    -4.5227 C.ar    
  33 C33            1.6111    -2.9325    -5.6534 C.ar    
  34 C34            2.3571    -2.9189    -6.8106 C.ar    
  35 C35            3.5724    -2.2294    -6.8486 C.ar    
  36 C36            4.0259    -1.5558    -5.7109 C.ar    
  37 C37            3.2722    -1.5693    -4.5587 C.ar    
  38 C38            4.3511    -2.2134    -8.0502 C.1     
  39 N39            4.9689    -2.2007    -9.0035 N.1     
  40 H40            0.0197     0.5704     1.5386 H       
  41 H41           -1.8944    -0.9679     1.6883 H       
  42 H42           -2.2661    -2.6582    -0.0597 H       
  43 H43           -0.7292    -2.8133    -1.9740 H       
  44 H44            0.6717    -2.9931    -3.1963 H       
  45 H45            2.8218     0.1203    -0.5408 H       
  46 H46            1.7605     1.3762    -1.2226 H       
  47 H47           -0.7360     0.3854     8.0432 H       
  48 H48           -0.0460    -1.2182     8.4499 H       
  49 H49            3.2745     2.2310     7.3667 H       
  50 H50            0.5966     0.1666     3.7782 H       
  51 H51            4.0532     3.7704     2.7873 H       
  52 H52            4.7751     2.1681     3.1531 H       
  53 H53            1.2948     4.6511     3.8293 H       
  54 H54           -0.3060     5.8875     2.4216 H       
  55 H55           -0.8733     5.0465     0.1786 H       
  56 H56            0.1500     2.9798    -0.6628 H       
  57 H57            0.6720    -3.4651    -5.6232 H       
  58 H58            2.0038    -3.4407    -7.6877 H       
  59 H59            4.9645    -1.0221    -5.7368 H       
  60 H60            3.6199    -1.0454    -3.6806 H       
@<TRIPOS>BOND
   1    1    2 1
   2    1    8 2
   3    1    9 am
   4    2    3 ar
   5    2    7 ar
   6    3    4 ar
   7    3   10 1
   8    4    5 ar
   9    4   40 1
  10    5    6 ar
  11    5   41 1
  12    6    7 ar
  13    6   42 1
  14    7   43 1
  15    9   32 1
  16    9   44 1
  17   10   23 1
  18   10   45 1
  19   10   46 1
  20   11   12 1
  21   11   15 1
  22   12   13 1
  23   12   47 1
  24   12   48 1
  25   13   14 1
  26   14   15 ar
  27   14   16 ar
  28   15   19 ar
  29   16   17 ar
  30   16   49 1
  31   17   18 ar
  32   17   20 1
  33   18   19 ar
  34   18   21 1
  35   19   50 1
  36   20   22 1
  37   21   22 1
  38   21   24 1
  39   21   25 1
  40   22   51 1
  41   22   52 1
  42   23   24 am
  43   23   30 1
  44   24   31 2
  45   25   26 ar
  46   25   30 ar
  47   26   27 ar
  48   26   53 1
  49   27   28 ar
  50   27   54 1
  51   28   29 ar
  52   28   55 1
  53   29   30 ar
  54   29   56 1
  55   32   33 ar
  56   32   37 ar
  57   33   34 ar
  58   33   57 1
  59   34   35 ar
  60   34   58 1
  61   35   36 ar
  62   35   38 1
  63   36   37 ar
  64   36   59 1
  65   37   60 1
  66   38   39 3

#	End of record

