#	Name: ASD01916269
#	Creating user name:	WinNT
#	Creation time:	15. 06. 2019 20:07

#	Modifying user name:	WinNT
#	Modification time:	15. 06. 2019 20:07

#	Program:	/corina/corina34_cracker 3.40 0067  02.08.2006

@<TRIPOS>MOLECULE
ASD01916269
  37   39    0    0    0
SMALL
NO_CHARGES


@<TRIPOS>ATOM
   1 C1            -0.0522     1.3251    -0.2458 C.ar    
   2 C2             0.0336    -0.0537    -0.1711 C.ar    
   3 C3             1.2276    -0.6577     0.1718 C.ar    
   4 C4             2.3514     0.1243     0.4433 C.ar    
   5 C5             2.2629     1.5148     0.3669 C.ar    
   6 C6             1.0610     2.1104     0.0228 C.ar    
   7 O7             0.9713     3.4642    -0.0531 O.3     
   8 C8             1.4668     4.0754    -1.1612 C.ar    
   9 C9             1.4013     5.4578    -1.3031 C.ar    
  10 N10            1.8953     6.0150    -2.3965 N.ar    
  11 C11            2.4431     5.2789    -3.3424 C.ar    
  12 N12            2.5235     3.9670    -3.2452 N.ar    
  13 C13            2.0577     3.3354    -2.1803 C.ar    
  14 Cl14          -1.3634    -1.0275    -0.5085 Cl      
  15 C15            3.6308    -0.5183     0.8110 C.2     
  16 N16            3.7136    -1.8615     0.8846 N.am    
  17 O17            4.6082     0.1647     1.0471 O.2     
  18 C18            4.9425    -2.4715     1.1268 C.ar    
  19 C19            5.0435    -3.8574     1.0860 C.ar    
  20 C20            7.3579    -3.6332     1.6036 C.ar    
  21 C21            7.1864    -2.2628     1.6228 C.ar    
  22 N22            6.0047    -1.7257     1.3883 N.ar    
  23 C23            6.2703    -4.4503     1.3280 C.ar    
  24 C24            8.3632    -1.3701     1.9213 C.3     
  25 H25           -0.9871     1.7921    -0.5184 H       
  26 H26            1.2915    -1.7342     0.2301 H       
  27 H27            3.1292     2.1248     0.5763 H       
  28 H28            0.9534     6.0671    -0.5321 H       
  29 H29            2.8372     5.7646    -4.2229 H       
  30 H30            2.1269     2.2601    -2.1072 H       
  31 H31            2.9175    -2.4036     0.7689 H       
  32 H32            4.1762    -4.4632     0.8687 H       
  33 H33            8.3291    -4.0642     1.7967 H       
  34 H34            6.3789    -5.5246     1.3034 H       
  35 H35            8.8694    -1.1129     0.9909 H       
  36 H36            8.0142    -0.4597     2.4087 H       
  37 H37            9.0572    -1.8918     2.5803 H       
@<TRIPOS>BOND
   1    1    2 ar
   2    1    6 ar
   3    1   25 1
   4    2    3 ar
   5    2   14 1
   6    3    4 ar
   7    3   26 1
   8    4    5 ar
   9    4   15 1
  10    5    6 ar
  11    5   27 1
  12    6    7 1
  13    7    8 1
  14    8    9 ar
  15    8   13 ar
  16    9   10 ar
  17    9   28 1
  18   10   11 ar
  19   11   12 ar
  20   11   29 1
  21   12   13 ar
  22   13   30 1
  23   15   16 am
  24   15   17 2
  25   16   18 1
  26   16   31 1
  27   18   19 ar
  28   18   22 ar
  29   19   23 ar
  30   19   32 1
  31   20   21 ar
  32   20   23 ar
  33   20   33 1
  34   21   22 ar
  35   21   24 1
  36   23   34 1
  37   24   35 1
  38   24   36 1
  39   24   37 1

#	End of record

