#	Name: ASD00311175
#	Creating user name:	WinNT
#	Creation time:	15. 06. 2019 18:34

#	Modifying user name:	WinNT
#	Modification time:	15. 06. 2019 18:34

#	Program:	/corina/corina34_cracker 3.40 0067  02.08.2006

@<TRIPOS>MOLECULE
ASD00311175
  45   48    0    0    0
SMALL
NO_CHARGES


@<TRIPOS>ATOM
   1 C1            -0.0167     1.3775     0.0096 C.2     
   2 C2             0.0021    -0.0041     0.0020 C.2     
   3 C3             1.2586    -0.6767    -0.0140 C.2     
   4 C4             2.4315     0.0671    -0.0217 C.2     
   5 C5             2.3575     1.4749    -0.0134 C.2     
   6 N6             1.1650     2.0901     0.0022 N.am    
   7 C7            -1.3435    -0.5754     0.0123 C.2     
   8 C8            -2.3233     0.3267     0.0268 C.2     
   9 S9            -1.6791     1.9565     0.0358 S.3     
  10 O10            3.3824     2.1371    -0.0196 O.2     
  11 C11           -1.5961    -2.0354     0.0065 C.ar    
  12 C12           -2.2067    -2.6446     1.1023 C.ar    
  13 C13           -2.4392    -4.0046     1.0911 C.ar    
  14 C14           -2.0680    -4.7637    -0.0043 C.ar    
  15 C15           -1.4619    -4.1651    -1.0943 C.ar    
  16 C16           -1.2293    -2.8049    -1.0972 C.ar    
  17 C17           -2.3244    -6.2487    -0.0100 C.3     
  18 C18           -3.7057    -6.5255    -0.6070 C.3     
  19 C19           -3.9660    -8.0331    -0.6128 C.3     
  20 C20            3.7475    -0.6123    -0.0379 C.ar    
  21 C21            4.5929    -0.4750    -1.1387 C.ar    
  22 C22            5.8179    -1.1100    -1.1477 C.ar    
  23 C23            6.2082    -1.8816    -0.0677 C.ar    
  24 C24            5.3738    -2.0220     1.0269 C.ar    
  25 C25            4.1489    -1.3873     1.0501 C.ar    
  26 O26            1.3083    -2.0292    -0.0213 O.3     
  27 Cl27          -4.0154    -0.0609     0.0415 Cl      
  28 H28            1.1328     3.0595     0.0073 H       
  29 H29           -2.4966    -2.0531     1.9582 H       
  30 H30           -2.9117    -4.4776     1.9393 H       
  31 H31           -1.1740    -4.7628    -1.9465 H       
  32 H32           -0.7602    -2.3380    -1.9506 H       
  33 H33           -1.5628    -6.7466    -0.6100 H       
  34 H34           -2.2875    -6.6277     1.0114 H       
  35 H35           -4.4673    -6.0275    -0.0069 H       
  36 H36           -3.7426    -6.1465    -1.6283 H       
  37 H37           -4.9500    -8.2303    -1.0381 H       
  38 H38           -3.2044    -8.5311    -1.2128 H       
  39 H39           -3.9291    -8.4121     0.4086 H       
  40 H40            4.2892     0.1268    -1.9825 H       
  41 H41            6.4733    -1.0047    -1.9996 H       
  42 H42            7.1679    -2.3767    -0.0794 H       
  43 H43            5.6837    -2.6263     1.8667 H       
  44 H44            3.5004    -1.4937     1.9072 H       
  45 H45            2.2055    -2.3898    -0.0322 H       
@<TRIPOS>BOND
   1    1    2 2
   2    1    6 1
   3    1    9 1
   4    2    3 1
   5    2    7 1
   6    3    4 2
   7    3   26 1
   8    4    5 1
   9    4   20 1
  10    5    6 am
  11    5   10 2
  12    6   28 1
  13    7    8 2
  14    7   11 1
  15    8    9 1
  16    8   27 1
  17   11   12 ar
  18   11   16 ar
  19   12   13 ar
  20   12   29 1
  21   13   14 ar
  22   13   30 1
  23   14   15 ar
  24   14   17 1
  25   15   16 ar
  26   15   31 1
  27   16   32 1
  28   17   18 1
  29   17   33 1
  30   17   34 1
  31   18   19 1
  32   18   35 1
  33   18   36 1
  34   19   37 1
  35   19   38 1
  36   19   39 1
  37   20   21 ar
  38   20   25 ar
  39   21   22 ar
  40   21   40 1
  41   22   23 ar
  42   22   41 1
  43   23   24 ar
  44   23   42 1
  45   24   25 ar
  46   24   43 1
  47   25   44 1
  48   26   45 1

#	End of record

