#	Name: ASD02198293
#	Creating user name:	WinNT
#	Creation time:	15. 06. 2019 20:19

#	Modifying user name:	WinNT
#	Modification time:	15. 06. 2019 20:19

#	Program:	/corina/corina34_cracker 3.40 0067  02.08.2006

@<TRIPOS>MOLECULE
ASD02198293
  47   50    0    0    0
SMALL
NO_CHARGES


@<TRIPOS>ATOM
   1 C1            -0.0155     1.3794    -0.0304 C.2     
   2 C2             0.0090    -0.0004     0.0053 C.2     
   3 S3             1.6493     1.9417    -0.1573 S.3     
   4 C4             2.2121     0.3285    -0.1516 C.2     
   5 N5             1.2186    -0.5076    -0.0623 N.2     
   6 N6            -1.1354    -0.7775     0.1035 N.pl3   
   7 C7            -1.1663     2.1923     0.0198 C.2     
   8 O8            -2.2742     1.6849    -0.0350 O.2     
   9 C9            -1.0305     3.6570     0.1384 C.2     
  10 N10            3.5372    -0.0376    -0.2307 N.pl3   
  11 C11            3.9077    -1.4549    -0.2173 C.3     
  12 C12            0.1941     4.2914     0.3455 C.2     
  13 C13            0.1012     5.6291     0.4244 C.2     
  14 S14           -1.5737     6.1245     0.2343 S.3     
  15 C15           -2.0886     4.5087     0.0497 C.2     
  16 C16            1.2394     6.5482     0.6398 C.ar    
  17 C17            1.0252     7.9256     0.7052 C.ar    
  18 C18            2.5316     6.0414     0.7843 C.ar    
  19 C19            3.5892     6.9042     0.9855 C.ar    
  20 C20            3.3707     8.2691     1.0445 C.ar    
  21 C21            2.0914     8.7776     0.9068 C.ar    
  22 C22            5.2646    -1.6516    -0.9157 C.3     
  23 C23            6.2196    -2.2503     0.1376 C.3     
  24 C24            5.2772    -2.9275     1.1635 C.3     
  25 C25            4.0854    -1.9409     1.2360 C.3     
  26 C26           -3.5169     4.0830    -0.1734 C.3     
  27 H27           -2.0067    -0.3538     0.1509 H       
  28 H28           -1.0645    -1.7446     0.1248 H       
  29 H29            4.2253     0.6430    -0.2953 H       
  30 H30            3.1408    -2.0457    -0.7182 H       
  31 H31            1.1287     3.7575     0.4339 H       
  32 H32            0.0271     8.3237     0.5978 H       
  33 H33            2.7033     4.9761     0.7391 H       
  34 H34            4.5897     6.5133     1.0975 H       
  35 H35            4.2019     8.9403     1.2029 H       
  36 H36            1.9276     9.8441     0.9535 H       
  37 H37            5.1565    -2.3386    -1.7550 H       
  38 H38            5.6475    -0.6925    -1.2645 H       
  39 H39            6.8783    -2.9882    -0.3204 H       
  40 H40            6.8017    -1.4628     0.6162 H       
  41 H41            4.9501    -3.9026     0.8025 H       
  42 H42            5.7640    -3.0173     2.1346 H       
  43 H43            4.3229    -1.1034     1.8920 H       
  44 H44            3.1867    -2.4530     1.5796 H       
  45 H45           -4.1590     4.9634    -0.1969 H       
  46 H46           -3.5937     3.5518    -1.1221 H       
  47 H47           -3.8310     3.4257     0.6375 H       
@<TRIPOS>BOND
   1    1    2 2
   2    1    3 1
   3    1    7 1
   4    2    6 1
   5    2    5 1
   6    3    4 1
   7    4    5 2
   8    4   10 1
   9    6   27 1
  10    6   28 1
  11    7    8 2
  12    7    9 1
  13    9   12 1
  14    9   15 2
  15   10   11 1
  16   10   29 1
  17   11   22 1
  18   11   25 1
  19   11   30 1
  20   12   13 2
  21   12   31 1
  22   13   14 1
  23   13   16 1
  24   14   15 1
  25   15   26 1
  26   16   17 ar
  27   16   18 ar
  28   17   21 ar
  29   17   32 1
  30   18   19 ar
  31   18   33 1
  32   19   20 ar
  33   19   34 1
  34   20   21 ar
  35   20   35 1
  36   21   36 1
  37   22   23 1
  38   22   37 1
  39   22   38 1
  40   23   24 1
  41   23   39 1
  42   23   40 1
  43   24   25 1
  44   24   41 1
  45   24   42 1
  46   25   43 1
  47   25   44 1
  48   26   45 1
  49   26   46 1
  50   26   47 1

#	End of record

