#	Name: ASD01148892
#	Creating user name:	WinNT
#	Creation time:	15. 06. 2019 19:03

#	Modifying user name:	WinNT
#	Modification time:	15. 06. 2019 19:03

#	Program:	/corina/corina34_cracker 3.40 0067  02.08.2006

@<TRIPOS>MOLECULE
ASD01148892
  25   25    0    0    0
SMALL
NO_CHARGES


@<TRIPOS>ATOM
   1 C1            -0.0184     1.5028     0.0103 C.2     
   2 C2             0.0021    -0.0041     0.0020 C.3     
   3 C3             1.4513    -0.4944    -0.0145 C.3     
   4 C4             1.4717    -2.0012    -0.0227 C.2     
   5 C5             2.7869    -2.7369    -0.0392 C.3     
   6 O6             1.0235     2.1234     0.0037 O.2     
   7 O7             0.4342    -2.6192    -0.0162 O.2     
   8 C8            -1.3014     2.2205     0.0203 C.ar    
   9 C9            -1.3239     3.6197     0.0280 C.ar    
  10 C10           -2.5295     4.2860     0.0374 C.ar    
  11 C11           -3.7194     3.5731     0.0392 C.ar    
  12 C12           -3.7042     2.1860     0.0316 C.ar    
  13 C13           -2.5055     1.5074     0.0163 C.ar    
  14 F14           -4.8985     4.2326     0.0489 F       
  15 H15           -0.4983    -0.3791     0.8948 H       
  16 H16           -0.5153    -0.3696    -0.8850 H       
  17 H17            1.9516    -0.1193    -0.9073 H       
  18 H18            1.9686    -0.1289     0.8726 H       
  19 H19            3.6056    -2.0174    -0.0432 H       
  20 H20            2.8616    -3.3675     0.8467 H       
  21 H21            2.8446    -3.3579    -0.9332 H       
  22 H22           -0.3981     4.1759     0.0270 H       
  23 H23           -2.5482     5.3658     0.0437 H       
  24 H24           -4.6342     1.6369     0.0331 H       
  25 H25           -2.4950     0.4275     0.0059 H       
@<TRIPOS>BOND
   1    1    2 1
   2    1    6 2
   3    1    8 1
   4    2    3 1
   5    2   15 1
   6    2   16 1
   7    3    4 1
   8    3   17 1
   9    3   18 1
  10    4    5 1
  11    4    7 2
  12    5   19 1
  13    5   20 1
  14    5   21 1
  15    8    9 ar
  16    8   13 ar
  17    9   10 ar
  18    9   22 1
  19   10   11 ar
  20   10   23 1
  21   11   12 ar
  22   11   14 1
  23   12   13 ar
  24   12   24 1
  25   13   25 1

#	End of record

