#	Name: ASD04590080
#	Creating user name:	WinNT
#	Creation time:	15. 06. 2019 20:50

#	Modifying user name:	WinNT
#	Modification time:	15. 06. 2019 20:50

#	Program:	/corina/corina34_cracker 3.40 0067  02.08.2006

@<TRIPOS>MOLECULE
ASD04590080
  46   48    0    0    0
SMALL
NO_CHARGES


@<TRIPOS>ATOM
   1 C1            -0.0187     1.5258     0.0104 C.3     
   2 C2             0.0021    -0.0041     0.0020 C.3     
   3 C3             0.7421    -0.5109     1.2415 C.3     
   4 C4             2.1775     0.0187     1.2307 C.3     
   5 C5             2.1567     1.5485     1.2391 C.3     
   6 C6             1.4167     2.0553    -0.0004 C.3     
   7 C7            -0.7475     2.0250    -1.2105 C.2     
   8 O8            -1.2036     1.2379    -2.0057 O.2     
   9 O9            -0.8901     3.3440    -1.4144 O.3     
  10 N10            2.8860    -0.4666     2.4176 N.am    
  11 C11            4.2292    -0.5771     2.4023 C.2     
  12 O12            4.8528    -0.2739     1.4035 O.2     
  13 N13            5.3064    -1.8022     5.5693 N.pl3   
  14 N14            4.3973    -1.4284     4.7424 N.2     
  15 C15            4.9426    -1.0657     3.5974 C.2     
  16 C16            6.3450    -1.2344     3.7323 C.2     
  17 C17            6.5328    -1.7021     4.9951 C.2     
  18 N18            7.3292    -0.9744     2.7670 N.am    
  19 C19            8.6283    -1.1887     3.0546 C.2     
  20 C20            9.6633    -0.9153     2.0395 C.ar    
  21 C21           10.0593    -1.9202     1.1502 C.ar    
  22 C22           11.0294    -1.6552     0.2019 C.ar    
  23 C23           11.6082    -0.4011     0.1307 C.ar    
  24 C24           11.2230     0.5979     1.0061 C.ar    
  25 C25           10.2503     0.3520     1.9568 C.ar    
  26 O26            8.9474    -1.6074     4.1508 O.2     
  27 F27            9.8711     1.3310     2.8071 F       
  28 F28            9.4955    -3.1460     1.2184 F       
  29 H29           -0.5289     1.8773     0.9072 H       
  30 H30           -1.0205    -0.3814     0.0098 H       
  31 H31            0.5123    -0.3556    -0.8948 H       
  32 H32            0.2319    -0.1594     2.1383 H       
  33 H33            0.7568    -1.6008     1.2356 H       
  34 H34            2.6876    -0.3328     0.3339 H       
  35 H35            1.6465     1.9000     2.1359 H       
  36 H36            3.1793     1.9258     1.2314 H       
  37 H37            1.9269     1.7038    -0.8972 H       
  38 H38            1.4019     3.1452     0.0056 H       
  39 H39           -1.3651     3.6162    -2.2116 H       
  40 H40            2.3885    -0.7085     3.2143 H       
  41 H41            5.1409    -2.1079     6.4749 H       
  42 H42            7.4788    -1.9472     5.4549 H       
  43 H43            7.0746    -0.6404     1.8926 H       
  44 H44           11.3366    -2.4298    -0.4851 H       
  45 H45           12.3656    -0.2009    -0.6127 H       
  46 H46           11.6806     1.5742     0.9440 H       
@<TRIPOS>BOND
   1    1    2 1
   2    1    6 1
   3    1    7 1
   4    1   29 1
   5    2    3 1
   6    2   30 1
   7    2   31 1
   8    3    4 1
   9    3   32 1
  10    3   33 1
  11    4    5 1
  12    4   10 1
  13    4   34 1
  14    5    6 1
  15    5   35 1
  16    5   36 1
  17    6   37 1
  18    6   38 1
  19    7    8 2
  20    7    9 1
  21    9   39 1
  22   10   11 am
  23   10   40 1
  24   11   12 2
  25   11   15 1
  26   13   14 1
  27   13   17 1
  28   13   41 1
  29   14   15 2
  30   15   16 1
  31   16   17 2
  32   16   18 1
  33   17   42 1
  34   18   19 am
  35   18   43 1
  36   19   20 1
  37   19   26 2
  38   20   21 ar
  39   20   25 ar
  40   21   22 ar
  41   21   28 1
  42   22   23 ar
  43   22   44 1
  44   23   24 ar
  45   23   45 1
  46   24   25 ar
  47   24   46 1
  48   25   27 1

#	End of record

