#	Name: ASD01811605
#	Creating user name:	WinNT
#	Creation time:	15. 06. 2019 19:27

#	Modifying user name:	WinNT
#	Modification time:	15. 06. 2019 19:27

#	Program:	/corina/corina34_cracker 3.40 0067  02.08.2006

@<TRIPOS>MOLECULE
ASD01811605
  64   68    0    0    0
SMALL
NO_CHARGES


@<TRIPOS>ATOM
   1 C1            -0.0204     1.4124    -0.1856 C.ar    
   2 C2             0.0168     0.0242    -0.0414 C.ar    
   3 C3            -1.1546    -0.6871     0.1293 C.ar    
   4 C4            -2.3693    -0.0317     0.1590 C.ar    
   5 C5            -2.4207     1.3568     0.0160 C.ar    
   6 C6            -1.2422     2.0808    -0.1508 C.ar    
   7 C7            -3.7226     2.0572     0.0471 C.2     
   8 O8            -4.6793     1.5880    -0.5377 O.2     
   9 N9            -3.8484     3.2159     0.7240 N.am    
  10 C10           -2.7403     3.7301     1.5404 C.3     
  11 C11           -3.2559     4.0003     2.9574 C.3     
  12 C12           -4.4686     4.9311     2.8858 C.3     
  13 C13           -5.5853     4.2564     2.0860 C.3     
  14 C14           -5.0941     3.9919     0.6546 C.3     
  15 C15           -4.9577     5.2265     4.2803 C.ar    
  16 C16           -5.8340     6.2755     4.4949 C.ar    
  17 C17           -4.5330     4.4438     5.3392 C.ar    
  18 C18           -4.9771     4.7083     6.6182 C.ar    
  19 C19           -5.8574     5.7687     6.8427 C.ar    
  20 C20           -6.2862     6.5512     5.7687 C.ar    
  21 C21           -6.3226     6.0490     8.1677 C.1     
  22 N22           -6.6917     6.2714     9.2188 N.1     
  23 C23            1.2354     2.1724    -0.3689 C.2     
  24 C24            1.3382    -0.6998    -0.0726 C.3     
  25 C25            1.6432    -1.4808     1.2165 C.3     
  26 C26            2.2058    -2.5932     0.3160 C.3     
  27 C27            1.2790    -2.0592    -0.7889 C.3     
  28 N28            1.4359     3.2405    -1.2138 N.pl3   
  29 C29            2.4178     1.9572     0.2688 C.2     
  30 N30            3.2975     2.8595    -0.1808 N.2     
  31 C31            2.7210     3.6286    -1.0649 C.2     
  32 C32            3.3826     4.7658    -1.7999 C.3     
  33 O33            2.4394     5.3742    -2.6843 O.3     
  34 C34            2.9682     6.4700    -3.4336 C.3     
  35 F35           -4.1022     6.1264     2.2578 F       
  36 H36           -1.1203    -1.7609     0.2397 H       
  37 H37           -3.2817    -0.5938     0.2929 H       
  38 H38           -1.2763     3.1546    -0.2615 H       
  39 H39           -1.9402     2.9909     1.5774 H       
  40 H40           -2.3651     4.6563     1.1052 H       
  41 H41           -3.5467     3.0593     3.4243 H       
  42 H42           -2.4696     4.4718     3.5469 H       
  43 H43           -5.8541     3.3129     2.5611 H       
  44 H44           -6.4569     4.9102     2.0553 H       
  45 H45           -4.9123     4.9405     0.1495 H       
  46 H46           -5.8474     3.4235     0.1090 H       
  47 H47           -6.1646     6.8801     3.6633 H       
  48 H48           -3.8524     3.6238     5.1641 H       
  49 H49           -4.6451     4.0964     7.4438 H       
  50 H50           -6.9667     7.3730     5.9354 H       
  51 H51            2.1605    -0.0656    -0.4038 H       
  52 H52            2.3957    -1.0067     1.8466 H       
  53 H53            0.7515    -1.7760     1.7696 H       
  54 H54            3.2659    -2.4778     0.0901 H       
  55 H55            1.9505    -3.5981     0.6522 H       
  56 H56            0.2877    -2.5125    -0.7841 H       
  57 H57            1.7374    -2.0521    -1.7778 H       
  58 H58            0.7783     3.6389    -1.8051 H       
  59 H59            2.6118     1.1935     1.0075 H       
  60 H60            3.7368     5.5054    -1.0818 H       
  61 H61            4.2265     4.3846    -2.3750 H       
  62 H62            3.8035     6.1242    -4.0427 H       
  63 H63            2.1908     6.8767    -4.0804 H       
  64 H64            3.3138     7.2450    -2.7494 H       
@<TRIPOS>BOND
   1    1    2 ar
   2    1   23 1
   3    1    6 ar
   4    2    3 ar
   5    2   24 1
   6    3    4 ar
   7    3   36 1
   8    4    5 ar
   9    4   37 1
  10    5    6 ar
  11    5    7 1
  12    6   38 1
  13    7    8 2
  14    7    9 am
  15    9   10 1
  16    9   14 1
  17   10   11 1
  18   10   39 1
  19   10   40 1
  20   11   12 1
  21   11   41 1
  22   11   42 1
  23   12   13 1
  24   12   15 1
  25   12   35 1
  26   13   14 1
  27   13   43 1
  28   13   44 1
  29   14   45 1
  30   14   46 1
  31   15   16 ar
  32   15   17 ar
  33   16   20 ar
  34   16   47 1
  35   17   18 ar
  36   17   48 1
  37   18   19 ar
  38   18   49 1
  39   19   20 ar
  40   19   21 1
  41   20   50 1
  42   21   22 3
  43   23   28 1
  44   23   29 2
  45   24   25 1
  46   24   27 1
  47   24   51 1
  48   25   26 1
  49   25   52 1
  50   25   53 1
  51   26   27 1
  52   26   54 1
  53   26   55 1
  54   27   56 1
  55   27   57 1
  56   28   31 1
  57   28   58 1
  58   29   30 1
  59   29   59 1
  60   30   31 2
  61   31   32 1
  62   32   33 1
  63   32   60 1
  64   32   61 1
  65   33   34 1
  66   34   62 1
  67   34   63 1
  68   34   64 1

#	End of record

