#	Name: ASD03730330
#	Creating user name:	WinNT
#	Creation time:	15. 06. 2019 20:44

#	Modifying user name:	WinNT
#	Modification time:	15. 06. 2019 20:44

#	Program:	/corina/corina34_cracker 3.40 0067  02.08.2006

@<TRIPOS>MOLECULE
ASD03730330
  59   65    0    0    0
SMALL
NO_CHARGES


@<TRIPOS>ATOM
   1 C1             0.2531     2.0498    -0.2903 C.2     
   2 C2             0.2054     0.5647    -0.0388 C.3     
   3 O3             1.3212     2.6070    -0.4313 O.2     
   4 N4            -0.8913     2.7579    -0.3640 N.am    
   5 O5             5.3671    -1.9031     1.6007 O.3     
   6 C6             5.7756    -0.6023     1.5903 C.ar    
   7 C7             4.7981     0.2278     1.0465 C.ar    
   8 C8             3.6327    -0.6556     0.6924 C.3     
   9 C9             3.9356    -1.9558     1.4502 C.3     
  10 O10            8.2791     2.0602     2.2924 O.3     
  11 C11            7.1950     1.3237     1.9216 C.ar    
  12 C12            6.2095     2.1282     1.3630 C.ar    
  13 C13            6.7396     3.5487     1.3648 C.3     
  14 C14            8.2507     3.3248     1.6094 C.3     
  15 C15            5.0196     1.5836     0.9316 C.ar    
  16 C16            6.9703    -0.0442     2.0279 C.ar    
  17 N17            1.5691     0.0302    -0.0097 N.am    
  18 C18            2.3184    -0.0597     1.1075 C.2     
  19 C19            3.5164    -0.8842    -0.7852 C.ar    
  20 C20            4.3736    -1.4030    -1.7458 C.ar    
  21 C21            3.9574    -1.4853    -3.0742 C.ar    
  22 C22            2.6946    -1.0499    -3.4239 C.ar    
  23 C23            1.8426    -0.5342    -2.4684 C.ar    
  24 C24            2.2444    -0.4461    -1.1365 C.ar    
  25 C25            8.1749    -2.7081    -0.6655 C.ar    
  26 N26            7.1221    -3.3036    -0.1411 N.ar    
  27 C27            5.8969    -2.9204    -0.4568 C.ar    
  28 C28            5.7291    -1.8682    -1.3603 C.ar    
  29 C29            6.8725    -1.2663    -1.8913 C.ar    
  30 N30            8.0609    -1.7119    -1.5214 N.ar    
  31 O31            1.9945     0.2746     2.2275 O.2     
  32 C32           -0.8452     4.1491    -0.5172 C.ar    
  33 C33           -1.8950     4.9364    -0.0559 C.ar    
  34 C34           -1.8454     6.3097    -0.2093 C.ar    
  35 C35           -0.7537     6.8992    -0.8204 C.ar    
  36 C36            0.2907     6.1186    -1.2796 C.ar    
  37 C37            0.2505     4.7460    -1.1246 C.ar    
  38 F38           -2.9614     4.3602     0.5407 F       
  39 H39           -0.2802     0.3736     0.9182 H       
  40 H40           -0.3582     0.0792    -0.8355 H       
  41 H41           -1.7468     2.3038    -0.3109 H       
  42 H42            3.6400    -2.8245     0.8619 H       
  43 H43            3.4440    -1.9603     2.4230 H       
  44 H44            6.5678     4.0299     0.4019 H       
  45 H45            6.2957     4.1292     2.1735 H       
  46 H46            8.6607     4.1136     2.2402 H       
  47 H47            8.7902     3.2653     0.6642 H       
  48 H48            4.2595     2.2196     0.5024 H       
  49 H49            7.7320    -0.6793     2.4555 H       
  50 H50            4.6200    -1.8876    -3.8263 H       
  51 H51            2.3713    -1.1129    -4.4524 H       
  52 H52            0.8573    -0.1972    -2.7545 H       
  53 H53            9.1614    -3.0439    -0.3818 H       
  54 H54            5.0393    -3.4133    -0.0234 H       
  55 H55            6.7870    -0.4500    -2.5933 H       
  56 H56           -2.6599     6.9223     0.1481 H       
  57 H57           -0.7172     7.9720    -0.9395 H       
  58 H58            1.1414     6.5826    -1.7564 H       
  59 H59            1.0694     4.1379    -1.4796 H       
@<TRIPOS>BOND
   1    1    2 1
   2    1    3 2
   3    1    4 am
   4    2   17 1
   5    2   39 1
   6    2   40 1
   7    4   32 1
   8    4   41 1
   9    5    6 1
  10    5    9 1
  11    6    7 ar
  12    6   16 ar
  13    7    8 1
  14    7   15 ar
  15    8    9 1
  16    8   18 1
  17    8   19 1
  18    9   42 1
  19    9   43 1
  20   10   11 1
  21   10   14 1
  22   11   12 ar
  23   11   16 ar
  24   12   13 1
  25   12   15 ar
  26   13   14 1
  27   13   44 1
  28   13   45 1
  29   14   46 1
  30   14   47 1
  31   15   48 1
  32   16   49 1
  33   17   18 am
  34   17   24 1
  35   18   31 2
  36   19   20 ar
  37   19   24 ar
  38   20   21 ar
  39   20   28 1
  40   21   22 ar
  41   21   50 1
  42   22   23 ar
  43   22   51 1
  44   23   24 ar
  45   23   52 1
  46   25   26 ar
  47   25   30 ar
  48   25   53 1
  49   26   27 ar
  50   27   28 ar
  51   27   54 1
  52   28   29 ar
  53   29   30 ar
  54   29   55 1
  55   32   33 ar
  56   32   37 ar
  57   33   34 ar
  58   33   38 1
  59   34   35 ar
  60   34   56 1
  61   35   36 ar
  62   35   57 1
  63   36   37 ar
  64   36   58 1
  65   37   59 1

#	End of record

