#	Name: ASD03240291
#	Creating user name:	WinNT
#	Creation time:	15. 06. 2019 20:34

#	Modifying user name:	WinNT
#	Modification time:	15. 06. 2019 20:34

#	Program:	/corina/corina34_cracker 3.40 0067  02.08.2006

@<TRIPOS>MOLECULE
ASD03240291
  80   84    0    0    0
SMALL
NO_CHARGES


@<TRIPOS>ATOM
   1 C1             0.4018     2.6213     1.9812 C.2     
   2 N2             0.6372     1.8751     3.1117 N.pl3   
   3 O3            -3.2561     4.1507     1.4821 O.2     
   4 C4            -2.5200     4.4437     0.5638 C.2     
   5 C5            -1.0916     3.9634     0.5603 C.3     
   6 N6            -0.8408     3.1684     1.7650 N.pl3   
   7 N7             1.3583     2.8145     1.1170 N.2     
   8 N8            -2.9796     5.1988    -0.4536 N.am    
   9 C9            -4.3266     5.5489    -0.5079 C.ar    
  10 C10           -4.7065     6.7945    -1.0273 C.ar    
  11 C11           -6.0501     7.1400    -1.0798 C.ar    
  12 C12           -7.0150     6.2452    -0.6151 C.ar    
  13 C13           -6.6267     5.0053    -0.0987 C.ar    
  14 C14           -5.2937     4.6614    -0.0524 C.ar    
  15 C15           -8.4447     6.6078    -0.6682 C.2     
  16 N16           -9.3763     5.7434    -0.2193 N.am    
  17 O17           -8.7821     7.6864    -1.1170 O.2     
  18 C18          -10.7202     6.1331    -0.1552 C.ar    
  19 C19          -11.7246     5.1769    -0.2278 C.ar    
  20 C20          -11.0480     7.4751    -0.0133 C.ar    
  21 C21          -12.3726     7.8593     0.0498 C.ar    
  22 C22          -13.3773     6.9035    -0.0285 C.ar    
  23 C23          -13.0492     5.5608    -0.1647 C.ar    
  24 N24          -14.7195     7.2926     0.0360 N.pl3   
  25 C25          -15.7792     6.2845    -0.0467 C.3     
  26 C26          -15.0654     8.7083     0.1862 C.3     
  27 C27           -3.6756     7.7408    -1.5191 C.ar    
  28 C28           -3.8062     8.3255    -2.7774 C.ar    
  29 C29           -2.8441     9.2057    -3.2296 C.ar    
  30 C30           -1.7518     9.5079    -2.4365 C.ar    
  31 C31           -1.6169     8.9301    -1.1869 C.ar    
  32 C32           -2.5757     8.0530    -0.7221 C.ar    
  33 C33          -15.2103     9.3372    -1.1757 C.ar    
  34 C34          -16.1163     5.7953     1.3383 C.ar    
  35 C35          -16.4424     9.3405    -1.8051 C.ar    
  36 C36          -16.5823     9.9148    -3.0515 C.ar    
  37 C37          -15.4767    10.4937    -3.6778 C.ar    
  38 C38          -14.2362    10.4869    -3.0369 C.ar    
  39 C39          -14.1118     9.9137    -1.7883 C.ar    
  40 C40          -17.0986     6.4340     2.0741 C.ar    
  41 C41          -17.4126     5.9912     3.3423 C.ar    
  42 C42          -16.7363     4.8958     3.8831 C.ar    
  43 C43          -15.7461     4.2559     3.1350 C.ar    
  44 C44          -15.4460     4.7060     1.8660 C.ar    
  45 C45          -17.0566     4.4309     5.1991 C.1     
  46 N46          -17.3107     4.0622     6.2432 N.1     
  47 C47          -15.6144    11.0913    -4.9719 C.1     
  48 N48          -15.7236    11.5654    -5.9984 N.1     
  49 H49            1.5150     1.4925     3.2662 H       
  50 H50           -0.0746     1.7313     3.7548 H       
  51 H51           -0.9169     3.3494    -0.3232 H       
  52 H52           -0.4198     4.8216     0.5450 H       
  53 H53           -1.5515     3.0279     2.4100 H       
  54 H54            1.1922     3.3409     0.3194 H       
  55 H55           -2.3722     5.4985    -1.1480 H       
  56 H56           -6.3477     8.0985    -1.4788 H       
  57 H57           -7.3742     4.3136     0.2607 H       
  58 H58           -4.9988     3.7024     0.3474 H       
  59 H59           -9.1161     4.8515     0.0594 H       
  60 H60          -11.4695     4.1328    -0.3341 H       
  61 H61          -10.2667     8.2182     0.0479 H       
  62 H62          -12.6275     8.9029     0.1605 H       
  63 H63          -13.8304     4.8175    -0.2260 H       
  64 H64          -16.6659     6.7258    -0.5019 H       
  65 H65          -15.4373     5.4469    -0.6546 H       
  66 H66          -16.0063     8.7968     0.7292 H       
  67 H67          -14.2770     9.2182     0.7398 H       
  68 H68           -4.6584     8.0900    -3.3976 H       
  69 H69           -2.9441     9.6591    -4.2047 H       
  70 H70           -1.0014    10.1972    -2.7944 H       
  71 H71           -0.7618     9.1694    -0.5721 H       
  72 H72           -2.4693     7.6025     0.2536 H       
  73 H73          -17.2966     8.8920    -1.3196 H       
  74 H74          -17.5445     9.9164    -3.5418 H       
  75 H75          -13.3770    10.9326    -3.5160 H       
  76 H76          -13.1529     9.9077    -1.2914 H       
  77 H77          -17.6206     7.2814     1.6548 H       
  78 H78          -18.1793     6.4909     3.9158 H       
  79 H79          -15.2190     3.4083     3.5474 H       
  80 H80          -14.6803     4.2120     1.2862 H       
@<TRIPOS>BOND
   1    1    2 1
   2    1    7 2
   3    1    6 1
   4    2   49 1
   5    2   50 1
   6    3    4 2
   7    4    5 1
   8    4    8 am
   9    5    6 1
  10    5   51 1
  11    5   52 1
  12    6   53 1
  13    7   54 1
  14    8    9 1
  15    8   55 1
  16    9   10 ar
  17    9   14 ar
  18   10   11 ar
  19   10   27 1
  20   11   12 ar
  21   11   56 1
  22   12   13 ar
  23   12   15 1
  24   13   14 ar
  25   13   57 1
  26   14   58 1
  27   15   16 am
  28   15   17 2
  29   16   18 1
  30   16   59 1
  31   18   19 ar
  32   18   20 ar
  33   19   23 ar
  34   19   60 1
  35   20   21 ar
  36   20   61 1
  37   21   22 ar
  38   21   62 1
  39   22   23 ar
  40   22   24 1
  41   23   63 1
  42   24   25 1
  43   24   26 1
  44   25   34 1
  45   25   64 1
  46   25   65 1
  47   26   33 1
  48   26   66 1
  49   26   67 1
  50   27   28 ar
  51   27   32 ar
  52   28   29 ar
  53   28   68 1
  54   29   30 ar
  55   29   69 1
  56   30   31 ar
  57   30   70 1
  58   31   32 ar
  59   31   71 1
  60   32   72 1
  61   33   35 ar
  62   33   39 ar
  63   34   40 ar
  64   34   44 ar
  65   35   36 ar
  66   35   73 1
  67   36   37 ar
  68   36   74 1
  69   37   38 ar
  70   37   47 1
  71   38   39 ar
  72   38   75 1
  73   39   76 1
  74   40   41 ar
  75   40   77 1
  76   41   42 ar
  77   41   78 1
  78   42   43 ar
  79   42   45 1
  80   43   44 ar
  81   43   79 1
  82   44   80 1
  83   45   46 3
  84   47   48 3

#	End of record

