#	Name: ASD03491010
#	Creating user name:	WinNT
#	Creation time:	15. 06. 2019 20:42

#	Modifying user name:	WinNT
#	Modification time:	15. 06. 2019 20:42

#	Program:	/corina/corina34_cracker 3.40 0067  02.08.2006

@<TRIPOS>MOLECULE
ASD03491010
  80   83    0    0    0
SMALL
NO_CHARGES


@<TRIPOS>ATOM
   1 C1             0.2340     1.4847    -0.3711 C.ar    
   2 C2             0.2007     0.1899    -0.8702 C.ar    
   3 C3             1.3679    -0.5664    -0.9146 C.ar    
   4 C4             2.5625    -0.0206    -0.4583 C.ar    
   5 C5             2.5858     1.2758     0.0394 C.ar    
   6 C6             1.4243     2.0229     0.0815 C.ar    
   7 C7             1.4552     3.4293     0.6220 C.3     
   8 N8             3.7412    -0.7775    -0.5000 N.am    
   9 C9             4.9240    -0.1711    -0.7229 C.2     
  10 C10            6.2027    -0.9656    -0.6548 C.3     
  11 O11            4.9592     1.0142    -0.9782 O.2     
  12 C12            6.2153    -1.9927    -1.7575 C.ar    
  13 C13            5.5911    -3.2374    -1.5687 C.ar    
  14 C14            5.6123    -4.1918    -2.6159 C.ar    
  15 C15            6.2591    -3.8733    -3.8272 C.ar    
  16 C16            6.8543    -2.6516    -3.9722 C.ar    
  17 C17            6.8267    -1.7157    -2.9423 C.ar    
  18 C18            4.9463    -3.5546    -0.3607 C.ar    
  19 C19            4.3527    -4.7705    -0.2135 C.ar    
  20 C20            4.3742    -5.7087    -1.2436 C.ar    
  21 C21            4.9885    -5.4356    -2.4274 C.ar    
  22 O22            6.2909    -4.7743    -4.8428 O.3     
  23 C23            6.9649    -4.3794    -6.0394 C.3     
  24 C24            6.8968    -5.5157    -7.0617 C.3     
  25 N25            5.4992    -5.7353    -7.4573 N.3     
  26 C26            5.4140    -6.6496    -8.6054 C.3     
  27 C27            3.9420    -6.8971    -8.9457 C.3     
  28 O28            3.3001    -5.6451    -9.2019 O.3     
  29 C29            3.3634    -4.7304    -8.1043 C.3     
  30 C30            4.8296    -4.4609    -7.7555 C.3     
  31 C31            2.8813     3.7794     1.0516 C.3     
  32 C32            0.9962     4.4036    -0.4648 C.3     
  33 C33            0.5193     3.5329     1.8280 C.3     
  34 O34            7.3186    -0.0864    -0.8100 O.3     
  35 N35           -1.0051    -0.3543    -1.3277 N.am    
  36 S36           -2.1239     0.6169    -2.0675 S.o2    
  37 O37           -3.1455    -0.2790    -2.4832 O.2     
  38 O38           -2.3875     1.6370    -1.1140 O.2     
  39 C39           -1.2518     1.2988    -3.5045 C.3     
  40 O40            1.3402    -1.8365    -1.4027 O.3     
  41 C41            1.5700    -1.9983    -2.8038 C.3     
  42 H42           -0.6705     2.0741    -0.3404 H       
  43 H43            3.5132     1.7006     0.3940 H       
  44 H44            3.7057    -1.7379    -0.3686 H       
  45 H45            6.2674    -1.4679     0.3104 H       
  46 H46            7.3499    -2.4076    -4.9003 H       
  47 H47            7.3047    -0.7574    -3.0822 H       
  48 H48            4.9224    -2.8375     0.4465 H       
  49 H49            3.8579    -5.0118     0.7157 H       
  50 H50            3.8961    -6.6666    -1.1009 H       
  51 H51            4.9967    -6.1721    -3.2172 H       
  52 H52            6.4850    -3.4914    -6.4506 H       
  53 H53            8.0076    -4.1568    -5.8125 H       
  54 H54            7.4855    -5.2502    -7.9398 H       
  55 H55            7.2965    -6.4277    -6.6185 H       
  56 H56            5.9160    -6.2036    -9.4639 H       
  57 H57            5.8934    -7.5956    -8.3536 H       
  58 H58            3.8744    -7.5288    -9.8314 H       
  59 H59            3.4527    -7.3920    -8.1067 H       
  60 H60            2.8774    -3.7950    -8.3816 H       
  61 H61            2.8573    -5.1623    -7.2409 H       
  62 H62            4.8824    -3.8092    -6.8834 H       
  63 H63            5.3223    -3.9799    -8.6005 H       
  64 H64            3.5480     3.7057     0.1924 H       
  65 H65            2.9036     4.7967     1.4425 H       
  66 H66            3.2083     3.0854     1.8258 H       
  67 H67           -0.0198     4.1542    -0.7708 H       
  68 H68            1.0185     5.4208    -0.0738 H       
  69 H69            1.6629     4.3298    -1.3240 H       
  70 H70            0.8463     2.8388     2.6023 H       
  71 H71            0.5417     4.5501     2.2189 H       
  72 H72           -0.4966     3.2835     1.5220 H       
  73 H73            7.3262     0.3952    -1.6485 H       
  74 H74           -1.1853    -1.3003    -1.2114 H       
  75 H75           -0.9276     0.4847    -4.1527 H       
  76 H76           -1.9214     1.9583    -4.0566 H       
  77 H77           -0.3823     1.8632    -3.1676 H       
  78 H78            1.5207    -3.0565    -3.0603 H       
  79 H79            0.8089    -1.4532    -3.3621 H       
  80 H80            2.5557    -1.6084    -3.0577 H       
@<TRIPOS>BOND
   1    1    2 ar
   2    1    6 ar
   3    1   42 1
   4    2    3 ar
   5    2   35 1
   6    3    4 ar
   7    3   40 1
   8    4    5 ar
   9    4    8 1
  10    5    6 ar
  11    5   43 1
  12    6    7 1
  13    7   31 1
  14    7   32 1
  15    7   33 1
  16    8    9 am
  17    8   44 1
  18    9   10 1
  19    9   11 2
  20   10   12 1
  21   10   34 1
  22   10   45 1
  23   12   13 ar
  24   12   17 ar
  25   13   14 ar
  26   13   18 ar
  27   14   15 ar
  28   14   21 ar
  29   15   16 ar
  30   15   22 1
  31   16   17 ar
  32   16   46 1
  33   17   47 1
  34   18   19 ar
  35   18   48 1
  36   19   20 ar
  37   19   49 1
  38   20   21 ar
  39   20   50 1
  40   21   51 1
  41   22   23 1
  42   23   24 1
  43   23   52 1
  44   23   53 1
  45   24   25 1
  46   24   54 1
  47   24   55 1
  48   25   26 1
  49   25   30 1
  50   26   27 1
  51   26   56 1
  52   26   57 1
  53   27   28 1
  54   27   58 1
  55   27   59 1
  56   28   29 1
  57   29   30 1
  58   29   60 1
  59   29   61 1
  60   30   62 1
  61   30   63 1
  62   31   64 1
  63   31   65 1
  64   31   66 1
  65   32   67 1
  66   32   68 1
  67   32   69 1
  68   33   70 1
  69   33   71 1
  70   33   72 1
  71   34   73 1
  72   35   36 am
  73   35   74 1
  74   36   37 2
  75   36   38 2
  76   36   39 1
  77   39   75 1
  78   39   76 1
  79   39   77 1
  80   40   41 1
  81   41   78 1
  82   41   79 1
  83   41   80 1

#	End of record

