#	Name: ASD00431052
#	Creating user name:	WinNT
#	Creation time:	15. 06. 2019 18:35

#	Modifying user name:	WinNT
#	Modification time:	15. 06. 2019 18:35

#	Program:	/corina/corina34_cracker 3.40 0067  02.08.2006

@<TRIPOS>MOLECULE
ASD00431052
  47   49    0    0    0
SMALL
NO_CHARGES


@<TRIPOS>ATOM
   1 C1            -5.2608    -1.9969    -3.0887 C.ar    
   2 C2            -4.4718    -1.7521    -1.9501 C.ar    
   3 C3            -3.5275    -2.8687    -1.8644 C.2     
   4 C4            -3.7859    -3.6816    -2.9009 C.2     
   5 N5            -4.8220    -3.1797    -3.6403 N.pl3   
   6 C6            -6.2610    -1.0929    -3.4321 C.ar    
   7 C7            -6.4667     0.0269    -2.6567 C.ar    
   8 C8            -5.6853     0.2640    -1.5340 C.ar    
   9 C9            -4.6979    -0.6107    -1.1782 C.ar    
  10 C10           -2.4669    -3.0669    -0.8123 C.3     
  11 C11           -3.0808    -3.7578     0.4070 C.3     
  12 N12           -2.0497    -3.9506     1.4297 N.pl3   
  13 C13           -2.3881    -4.4504     2.6549 C.2     
  14 C14           -2.1097    -3.7160     3.7368 C.2     
  15 C15           -3.0583    -5.7924     2.7143 C.3     
  16 C16           -2.9668    -6.3640     4.1305 C.3     
  17 C17           -3.4388    -5.2931     5.1213 C.3     
  18 C18           -2.4172    -4.1564     5.1387 C.3     
  19 C19           -1.4932    -2.4595     3.5511 C.2     
  20 O20           -1.3253    -2.0243     2.4270 O.2     
  21 O21           -1.0900    -1.7411     4.6202 O.3     
  22 C22           -0.0871     0.1844     5.6819 C.3     
  23 C23           -0.4737    -0.4786     4.3584 C.3     
  24 H24           -3.2567    -4.5980    -3.1170 H       
  25 H25           -5.1885    -3.5923    -4.4380 H       
  26 H26           -6.8740    -1.2684    -4.3038 H       
  27 H27           -7.2434     0.7276    -2.9252 H       
  28 H28           -5.8593     1.1470    -0.9370 H       
  29 H29           -4.0940    -0.4197    -0.3035 H       
  30 H30           -1.6660    -3.6864    -1.2160 H       
  31 H31           -2.0633    -2.0986    -0.5163 H       
  32 H32           -3.8817    -3.1384     0.8107 H       
  33 H33           -3.4844    -4.7261     0.1110 H       
  34 H34           -1.1267    -3.7231     1.2367 H       
  35 H35           -4.1064    -5.6857     2.4347 H       
  36 H36           -2.5680    -6.4725     2.0178 H       
  37 H37           -3.6046    -7.2442     4.2118 H       
  38 H38           -1.9342    -6.6356     4.3496 H       
  39 H39           -4.4075    -4.9050     4.8066 H       
  40 H40           -3.5216    -5.7274     6.1176 H       
  41 H41           -1.5001    -4.5019     5.6158 H       
  42 H42           -2.8213    -3.3160     5.7031 H       
  43 H43           -0.9808     0.3350     6.2876 H       
  44 H44            0.6120    -0.4567     6.2189 H       
  45 H45            0.3829     1.1474     5.4822 H       
  46 H46            0.4199    -0.6291     3.7527 H       
  47 H47           -1.1728     0.1625     3.8214 H       
@<TRIPOS>BOND
   1    1    2 ar
   2    1    6 ar
   3    1    5 1
   4    2    3 1
   5    2    9 ar
   6    3    4 2
   7    3   10 1
   8    4    5 1
   9    4   24 1
  10    5   25 1
  11    6    7 ar
  12    6   26 1
  13    7    8 ar
  14    7   27 1
  15    8    9 ar
  16    8   28 1
  17    9   29 1
  18   10   11 1
  19   10   30 1
  20   10   31 1
  21   11   12 1
  22   11   32 1
  23   11   33 1
  24   12   13 1
  25   12   34 1
  26   13   14 2
  27   13   15 1
  28   14   19 1
  29   14   18 1
  30   15   16 1
  31   15   35 1
  32   15   36 1
  33   16   17 1
  34   16   37 1
  35   16   38 1
  36   17   18 1
  37   17   39 1
  38   17   40 1
  39   18   41 1
  40   18   42 1
  41   19   20 2
  42   19   21 1
  43   21   23 1
  44   22   23 1
  45   22   43 1
  46   22   44 1
  47   22   45 1
  48   23   46 1
  49   23   47 1

#	End of record

