#	Name: ASD01208935
#	Creating user name:	WinNT
#	Creation time:	15. 06. 2019 19:10

#	Modifying user name:	WinNT
#	Modification time:	15. 06. 2019 19:10

#	Program:	/corina/corina34_cracker 3.40 0067  02.08.2006

@<TRIPOS>MOLECULE
ASD01208935
  58   62    0    0    0
SMALL
NO_CHARGES


@<TRIPOS>ATOM
   1 C1            -2.1639     1.6098    -0.9625 C.3     
   2 C2            -2.1465     0.0851    -1.1086 C.3     
   3 C3            -1.4117    -0.2846    -2.4009 C.3     
   4 C4            -2.0973     0.4046    -3.5835 C.3     
   5 O5            -2.1068     1.8174    -3.3696 O.3     
   6 C6            -2.8205     2.2258    -2.2008 C.3     
   7 C7            -1.4219    -0.5354     0.0876 C.3     
   8 C8            -1.5299    -2.0599     0.0145 C.3     
   9 C9            -0.7065    -2.6752     1.1166 C.2     
  10 N10            0.6325    -2.5222     1.1230 N.am    
  11 C11            1.3997    -3.1724     2.0767 C.2     
  12 N12           -2.9310    -2.4582     0.1712 N.pl3   
  13 N13            2.6811    -3.0922     2.1681 N.2     
  14 C14            3.2863    -3.7855     3.1525 C.ar    
  15 C15            2.3889    -4.5071     3.9451 C.ar    
  16 S16            0.7595    -4.2174     3.3371 S.3     
  17 C17            4.6618    -3.8668     3.4662 C.ar    
  18 C18            5.0564    -4.6459     4.5291 C.ar    
  19 C19            4.0996    -5.3341     5.2697 C.ar    
  20 N20            2.8203    -5.2472     4.9634 N.ar    
  21 C21           -3.5775    -2.6440     1.3410 C.2     
  22 C22           -4.8503    -3.0046     1.0561 C.2     
  23 C23           -4.9862    -3.0403    -0.3355 C.2     
  24 N24           -3.8379    -2.7075    -0.8670 N.2     
  25 S25           -6.4527    -3.4546    -1.2200 S.o2    
  26 C26           -7.3090    -1.8711    -1.4438 C.3     
  27 O27           -5.9824    -3.9477    -2.4670 O.2     
  28 O28           -7.1760    -4.2908    -0.3273 O.2     
  29 C29           -8.6971    -1.9033    -2.0865 C.3     
  30 C30           -8.5530    -1.6140    -0.5910 C.3     
  31 O31           -1.2488    -3.3080     1.9976 O.2     
  32 O32            4.4881    -6.1031     6.3186 O.3     
  33 C33            3.4594    -6.7845     7.0395 C.3     
  34 H34           -2.7327     1.8841    -0.0741 H       
  35 H35           -1.1423     1.9786    -0.8704 H       
  36 H36           -3.1694    -0.2889    -1.1510 H       
  37 H37           -0.3750     0.0459    -2.3377 H       
  38 H38           -1.4426    -1.3651    -2.5411 H       
  39 H39           -1.5531     0.1794    -4.5007 H       
  40 H40           -3.1220     0.0432    -3.6706 H       
  41 H41           -3.8546     1.8883    -2.2698 H       
  42 H42           -2.7972     3.3127    -2.1218 H       
  43 H43           -0.3717    -0.2442     0.0672 H       
  44 H44           -1.8789    -0.1827     1.0121 H       
  45 H45           -1.1600    -2.4045    -0.9511 H       
  46 H46            1.0593    -1.9570     0.4603 H       
  47 H47            5.3912    -3.3266     2.8810 H       
  48 H48            6.1022    -4.7234     4.7872 H       
  49 H49           -3.1548    -2.5264     2.3278 H       
  50 H50           -5.6244    -3.2257     1.7761 H       
  51 H51           -6.6689    -1.0185    -1.6707 H       
  52 H52           -8.9704    -1.0716    -2.7359 H       
  53 H53           -9.0958    -2.8759    -2.3749 H       
  54 H54           -8.8569    -2.3964     0.1045 H       
  55 H55           -8.7315    -0.5921    -0.2566 H       
  56 H56            2.7618    -6.0561     7.4529 H       
  57 H57            2.9270    -7.4557     6.3656 H       
  58 H58            3.9049    -7.3615     7.8499 H       
@<TRIPOS>BOND
   1    1    2 1
   2    1    6 1
   3    1   34 1
   4    1   35 1
   5    2    3 1
   6    2    7 1
   7    2   36 1
   8    3    4 1
   9    3   37 1
  10    3   38 1
  11    4    5 1
  12    4   39 1
  13    4   40 1
  14    5    6 1
  15    6   41 1
  16    6   42 1
  17    7    8 1
  18    7   43 1
  19    7   44 1
  20    8    9 1
  21    8   12 1
  22    8   45 1
  23    9   10 am
  24    9   31 2
  25   10   11 1
  26   10   46 1
  27   11   13 2
  28   11   16 1
  29   12   21 1
  30   12   24 1
  31   13   14 1
  32   14   15 ar
  33   14   17 ar
  34   15   16 1
  35   15   20 ar
  36   17   18 ar
  37   17   47 1
  38   18   19 ar
  39   18   48 1
  40   19   20 ar
  41   19   32 1
  42   21   22 2
  43   21   49 1
  44   22   23 1
  45   22   50 1
  46   23   24 2
  47   23   25 1
  48   25   26 1
  49   25   27 2
  50   25   28 2
  51   26   29 1
  52   26   30 1
  53   26   51 1
  54   29   30 1
  55   29   52 1
  56   29   53 1
  57   30   54 1
  58   30   55 1
  59   32   33 1
  60   33   56 1
  61   33   57 1
  62   33   58 1

#	End of record

