#	Name: ASD01680059
#	Creating user name:	WinNT
#	Creation time:	15. 06. 2019 19:22

#	Modifying user name:	WinNT
#	Modification time:	15. 06. 2019 19:22

#	Program:	/corina/corina34_cracker 3.40 0067  02.08.2006

@<TRIPOS>MOLECULE
ASD01680059
  91   95    0    0    0
SMALL
NO_CHARGES


@<TRIPOS>ATOM
   1 N1            -0.5013    -1.5706    -2.3231 N.am    
   2 C2            -0.2179    -2.9378    -2.7962 C.3     
   3 C3             1.0669    -3.3605    -2.0409 C.3     
   4 C4             1.8613    -2.0281    -2.0076 C.3     
   5 C5             0.7516    -0.9681    -1.8447 C.3     
   6 C6            -1.7080    -0.9704    -2.3328 C.2     
   7 O7            -2.6582    -1.5250    -2.8485 O.2     
   8 O8            -1.8605     0.2436    -1.7711 O.3     
   9 C9            -1.3754    -3.8741    -2.4434 C.3     
  10 N10           -1.7181    -3.7150    -1.0280 N.pl3   
  11 N11           -3.0966    -4.2427     0.7783 N.ar    
  12 C12           -2.8022    -4.3969    -0.4961 C.ar    
  13 C13           -3.5597    -5.2343    -1.3282 C.ar    
  14 C14           -4.6275    -5.9100    -0.8199 C.ar    
  15 C15           -4.9374    -5.7405     0.5454 C.ar    
  16 C16           -6.0228    -6.4071     1.1336 C.ar    
  17 C17           -6.2918    -6.2201     2.4561 C.ar    
  18 C18           -5.5034    -5.3749     3.2325 C.ar    
  19 C19           -4.4427    -4.7127     2.6934 C.ar    
  20 C20           -4.1338    -4.8807     1.3332 C.ar    
  21 O21            2.7549    -2.0000    -0.8929 O.3     
  22 C22            3.9370    -1.2283    -1.1149 C.3     
  23 C23            4.8018    -1.2681     0.1186 C.2     
  24 N24            5.9758    -0.6064     0.1400 N.am    
  25 O25            4.4414    -1.8954     1.0919 O.2     
  26 C26            6.8166    -0.6451     1.3391 C.3     
  27 C27            8.0822     0.1811     1.1014 C.3     
  28 N28            7.7101     1.5377     0.6923 N.am    
  29 S29            8.6421     2.3567    -0.4045 S.o2    
  30 O30            8.0064     3.6102    -0.6145 O.2     
  31 O31            9.9865     2.2316     0.0386 O.2     
  32 C32            8.5383     1.4842    -1.9317 C.ar    
  33 C33            9.4309     0.4652    -2.2076 C.ar    
  34 C34            9.3495    -0.2193    -3.4058 C.ar    
  35 C35            8.3753     0.1148    -4.3279 C.ar    
  36 C36            7.4822     1.1331    -4.0516 C.ar    
  37 C37            7.5609     1.8147    -2.8516 C.ar    
  38 C38            6.5840     2.9214    -2.5482 C.3     
  39 C39            8.2872    -0.6309    -5.6346 C.3     
  40 C40           10.4929     0.1011    -1.2024 C.3     
  41 C41            8.8879     0.2432     2.3735 C.2     
  42 O42            9.1267     1.3111     2.8858 O.2     
  43 O43            9.3401    -0.8878     2.9374 O.3     
  44 C44           -3.1881     0.8298    -1.8185 C.3     
  45 C45           -3.1662     2.1782    -1.1460 C.ar    
  46 C46           -2.8903     3.3141    -1.8839 C.ar    
  47 C47           -2.8701     4.5511    -1.2670 C.ar    
  48 C48           -3.1263     4.6521     0.0876 C.ar    
  49 C49           -3.4031     3.5162     0.8253 C.ar    
  50 C50           -3.4275     2.2798     0.2076 C.ar    
  51 H51           -0.0429    -2.9383    -3.8721 H       
  52 H52            0.8329    -3.7012    -1.0323 H       
  53 H53            1.6111    -4.1261    -2.5938 H       
  54 H54            2.4031    -1.8788    -2.9415 H       
  55 H55            0.9903    -0.0870    -2.4404 H       
  56 H56            0.6533    -0.6927    -0.7947 H       
  57 H57           -2.2419    -3.6277    -3.0570 H       
  58 H58           -1.0784    -4.9058    -2.6316 H       
  59 H59           -1.1867    -3.1327    -0.4628 H       
  60 H60           -3.2969    -5.3429    -2.3701 H       
  61 H61           -5.2218    -6.5587    -1.4464 H       
  62 H62           -6.6418    -7.0646     0.5413 H       
  63 H63           -7.1276    -6.7338     2.9078 H       
  64 H64           -5.7370    -5.2422     4.2786 H       
  65 H65           -3.8412    -4.0604     3.3092 H       
  66 H66            4.4884    -1.6430    -1.9588 H       
  67 H67            3.6617    -0.1964    -1.3326 H       
  68 H68            6.2641    -0.1047    -0.6385 H       
  69 H69            6.2652    -0.2304     2.1830 H       
  70 H70            7.0919    -1.6770     1.5568 H       
  71 H71            8.6780    -0.2846     0.3164 H       
  72 H72            6.9179     1.9562     1.0639 H       
  73 H73           10.0472    -1.0149    -3.6217 H       
  74 H74            6.7213     1.3943    -4.7722 H       
  75 H75            7.0443     3.8838    -2.7720 H       
  76 H76            5.6905     2.7951    -3.1595 H       
  77 H77            6.3108     2.8859    -1.4936 H       
  78 H78            7.6257    -1.4894    -5.5191 H       
  79 H79            7.8919     0.0314    -6.4048 H       
  80 H80            9.2803    -0.9738    -5.9249 H       
  81 H81           10.0595    -0.5344    -0.4300 H       
  82 H82           11.2991    -0.4347    -1.7035 H       
  83 H83           10.8882     1.0088    -0.7465 H       
  84 H84            9.8523    -0.7976     3.7526 H       
  85 H85           -3.4967     0.9468    -2.8573 H       
  86 H86           -3.8920     0.1774    -1.3017 H       
  87 H87           -2.6901     3.2352    -2.9422 H       
  88 H88           -2.6539     5.4384    -1.8433 H       
  89 H89           -3.1098     5.6184     0.5697 H       
  90 H90           -3.6029     3.5951     1.8837 H       
  91 H91           -3.6474     1.3929     0.7832 H       
@<TRIPOS>BOND
   1    1    2 1
   2    1    5 1
   3    1    6 am
   4    2    3 1
   5    2    9 1
   6    2   51 1
   7    3    4 1
   8    3   52 1
   9    3   53 1
  10    4    5 1
  11    4   21 1
  12    4   54 1
  13    5   55 1
  14    5   56 1
  15    6    7 2
  16    6    8 1
  17    8   44 1
  18    9   10 1
  19    9   57 1
  20    9   58 1
  21   10   12 1
  22   10   59 1
  23   11   12 ar
  24   11   20 ar
  25   12   13 ar
  26   13   14 ar
  27   13   60 1
  28   14   15 ar
  29   14   61 1
  30   15   16 ar
  31   15   20 ar
  32   16   17 ar
  33   16   62 1
  34   17   18 ar
  35   17   63 1
  36   18   19 ar
  37   18   64 1
  38   19   20 ar
  39   19   65 1
  40   21   22 1
  41   22   23 1
  42   22   66 1
  43   22   67 1
  44   23   24 am
  45   23   25 2
  46   24   26 1
  47   24   68 1
  48   26   27 1
  49   26   69 1
  50   26   70 1
  51   27   28 1
  52   27   41 1
  53   27   71 1
  54   28   29 am
  55   28   72 1
  56   29   30 2
  57   29   31 2
  58   29   32 1
  59   32   33 ar
  60   32   37 ar
  61   33   34 ar
  62   33   40 1
  63   34   35 ar
  64   34   73 1
  65   35   36 ar
  66   35   39 1
  67   36   37 ar
  68   36   74 1
  69   37   38 1
  70   38   75 1
  71   38   76 1
  72   38   77 1
  73   39   78 1
  74   39   79 1
  75   39   80 1
  76   40   81 1
  77   40   82 1
  78   40   83 1
  79   41   42 2
  80   41   43 1
  81   43   84 1
  82   44   45 1
  83   44   85 1
  84   44   86 1
  85   45   46 ar
  86   45   50 ar
  87   46   47 ar
  88   46   87 1
  89   47   48 ar
  90   47   88 1
  91   48   49 ar
  92   48   89 1
  93   49   50 ar
  94   49   90 1
  95   50   91 1

#	End of record

