#	Name: ASD01881931
#	Creating user name:	WinNT
#	Creation time:	15. 06. 2019 19:43

#	Modifying user name:	WinNT
#	Modification time:	15. 06. 2019 19:43

#	Program:	/corina/corina34_cracker 3.40 0067  02.08.2006

@<TRIPOS>MOLECULE
ASD01881931
  45   47    0    0    0
SMALL
NO_CHARGES


@<TRIPOS>ATOM
   1 C1            -0.0184     1.5028     0.0103 C.3     
   2 C2             0.0021    -0.0041     0.0020 C.2     
   3 C3            -1.2926    -0.7753     0.0102 C.3     
   4 C4            -0.9927    -2.2755    -0.0007 C.3     
   5 C5            -0.1736    -2.6409     1.2388 C.3     
   6 O6             1.0559    -0.5936    -0.0112 O.2     
   7 C7            -2.3072    -3.0585     0.0077 C.3     
   8 C8            -0.1974    -2.6275    -1.2595 C.3     
   9 O9             1.3223     1.9974     0.0002 O.3     
  10 N10            2.2403     7.3975     0.0199 N.pl3   
  11 N11            3.6406     7.3162     0.0067 N.2     
  12 N12            3.9976     6.0804    -0.0028 N.2     
  13 C13            2.9135     5.2794     0.0030 C.ar    
  14 C14            1.7741     6.1026     0.0175 C.ar    
  15 C15            2.7519     3.8871    -0.0033 C.ar    
  16 C16            1.4821     3.3478     0.0059 C.ar    
  17 C17            0.3627     4.1764     0.0206 C.ar    
  18 C18            0.5048     5.5355     0.0255 C.ar    
  19 C19            1.4331     8.6199     0.0388 C.3     
  20 C20            1.1389     9.0591    -1.3969 C.3     
  21 C21            0.2061    10.2560    -1.5925 C.3     
  22 C22            1.7062    10.4043    -1.8545 C.3     
  23 Br23           4.2659     2.7543    -0.0235 Br      
  24 H24           -0.5455     1.8639    -0.8728 H       
  25 H25           -0.5286     1.8543     0.9071 H       
  26 H26           -1.8592    -0.5245     0.9070 H       
  27 H27           -1.8762    -0.5150    -0.8728 H       
  28 H28           -0.7401    -2.3902     2.1356 H       
  29 H29            0.0401    -3.7097     1.2311 H       
  30 H30            0.7629    -2.0831     1.2329 H       
  31 H31           -2.8907    -2.7982    -0.8754 H       
  32 H32           -2.0935    -4.1273    -0.0001 H       
  33 H33           -2.8737    -2.8077     0.9045 H       
  34 H34            0.7390    -2.0697    -1.2654 H       
  35 H35            0.0163    -3.6963    -1.2673 H       
  36 H36           -0.7810    -2.3672    -2.1425 H       
  37 H37           -0.6257     3.7412     0.0273 H       
  38 H38           -0.3695     6.1695     0.0367 H       
  39 H39            0.4950     8.4278     0.5595 H       
  40 H40            1.9803     9.4086     0.5551 H       
  41 H41            1.0892     8.2568    -2.1331 H       
  42 H42           -0.4569    10.2414    -2.4575 H       
  43 H43           -0.1979    10.7306    -0.6982 H       
  44 H44            2.2891    10.9764    -1.1327 H       
  45 H45            2.0301    10.4872    -2.8920 H       
@<TRIPOS>BOND
   1    1    2 1
   2    1    9 1
   3    1   24 1
   4    1   25 1
   5    2    3 1
   6    2    6 2
   7    3    4 1
   8    3   26 1
   9    3   27 1
  10    4    5 1
  11    4    7 1
  12    4    8 1
  13    5   28 1
  14    5   29 1
  15    5   30 1
  16    7   31 1
  17    7   32 1
  18    7   33 1
  19    8   34 1
  20    8   35 1
  21    8   36 1
  22    9   16 1
  23   10   11 1
  24   10   14 1
  25   10   19 1
  26   11   12 2
  27   12   13 1
  28   13   14 ar
  29   13   15 ar
  30   14   18 ar
  31   15   16 ar
  32   15   23 1
  33   16   17 ar
  34   17   18 ar
  35   17   37 1
  36   18   38 1
  37   19   20 1
  38   19   39 1
  39   19   40 1
  40   20   21 1
  41   20   22 1
  42   20   41 1
  43   21   22 1
  44   21   42 1
  45   21   43 1
  46   22   44 1
  47   22   45 1

#	End of record

