#	Name: ASD03091014
#	Creating user name:	WinNT
#	Creation time:	15. 06. 2019 20:29

#	Modifying user name:	WinNT
#	Modification time:	15. 06. 2019 20:29

#	Program:	/corina/corina34_cracker 3.40 0067  02.08.2006

@<TRIPOS>MOLECULE
ASD03091014
  42   45    0    0    0
SMALL
NO_CHARGES


@<TRIPOS>ATOM
   1 N1            -2.2207    -2.7310     0.5869 N.am    
   2 C2            -1.0877    -2.0277     0.2892 C.2     
   3 C3            -1.1085    -0.7152     0.0082 C.2     
   4 C4            -2.3848     0.0028     0.0165 C.ar    
   5 C5            -3.5598    -0.7213     0.3236 C.ar    
   6 C6            -3.4387    -2.1546     0.6131 C.2     
   7 O7            -4.4267    -2.8144     0.8818 O.2     
   8 C8            -2.4650     1.3673    -0.2677 C.ar    
   9 C9            -3.6784     1.9937    -0.2472 C.ar    
  10 C10           -4.8427     1.2868     0.0552 C.ar    
  11 C11           -4.7906    -0.0665     0.3402 C.ar    
  12 N12           -6.0722     1.9510     0.0701 N.3     
  13 C13           -6.1352     2.9647    -0.9895 C.3     
  14 C14           -7.5234     3.5694    -1.1309 C.3     
  15 N15           -7.9126     4.2710     0.1019 N.3     
  16 C16           -8.6935     3.3737     0.9656 C.3     
  17 C17           -7.7983     2.4354     1.7495 C.3     
  18 C18           -6.3267     2.5585     1.3838 C.3     
  19 C19           -2.1085    -4.1616     0.8818 C.3     
  20 C20           -5.8227     3.9901     1.3763 C.3     
  21 C21           -6.8527     4.9545     0.8116 C.3     
  22 H22           -0.1406    -2.5467     0.2800 H       
  23 H23           -0.1915    -0.1930    -0.2219 H       
  24 H24           -1.5708     1.9254    -0.5026 H       
  25 H25           -3.7373     3.0493    -0.4675 H       
  26 H26           -5.6943    -0.6099     0.5737 H       
  27 H27           -5.4256     3.7597    -0.7603 H       
  28 H28           -5.8528     2.5040    -1.9361 H       
  29 H29           -7.5247     4.2753    -1.9614 H       
  30 H30           -8.2419     2.7754    -1.3343 H       
  31 H31           -9.2795     3.9721     1.6631 H       
  32 H32           -9.3712     2.7852     0.3471 H       
  33 H33           -7.9134     2.6491     2.8121 H       
  34 H34           -8.1197     1.4103     1.5651 H       
  35 H35           -5.7464     2.0110     2.1265 H       
  36 H36           -1.0640    -4.4659     0.8133 H       
  37 H37           -2.4780    -4.3551     1.8888 H       
  38 H38           -2.6999    -4.7283     0.1626 H       
  39 H39           -5.5822     4.2864     2.3973 H       
  40 H40           -4.9177     4.0439     0.7711 H       
  41 H41           -6.3554     5.6422     0.1275 H       
  42 H42           -7.2877     5.5268     1.6310 H       
@<TRIPOS>BOND
   1    1    2 1
   2    1   19 1
   3    1    6 am
   4    2    3 2
   5    2   22 1
   6    3    4 1
   7    3   23 1
   8    4    5 ar
   9    4    8 ar
  10    5    6 1
  11    5   11 ar
  12    6    7 2
  13    8    9 ar
  14    8   24 1
  15    9   10 ar
  16    9   25 1
  17   10   11 ar
  18   10   12 1
  19   11   26 1
  20   12   13 1
  21   12   18 1
  22   13   14 1
  23   13   27 1
  24   13   28 1
  25   14   15 1
  26   14   29 1
  27   14   30 1
  28   15   16 1
  29   15   21 1
  30   16   17 1
  31   16   31 1
  32   16   32 1
  33   17   18 1
  34   17   33 1
  35   17   34 1
  36   18   20 1
  37   18   35 1
  38   19   36 1
  39   19   37 1
  40   19   38 1
  41   20   21 1
  42   20   39 1
  43   20   40 1
  44   21   41 1
  45   21   42 1

#	End of record

