#	Name: ASD03330094
#	Creating user name:	WinNT
#	Creation time:	15. 06. 2019 20:36

#	Modifying user name:	WinNT
#	Modification time:	15. 06. 2019 20:36

#	Program:	/corina/corina34_cracker 3.40 0067  02.08.2006

@<TRIPOS>MOLECULE
ASD03330094
  65   69    0    0    0
SMALL
NO_CHARGES


@<TRIPOS>ATOM
   1 C1            -0.7455     1.3548    -0.0800 C.2     
   2 C2            -0.5103     0.0125    -0.0795 C.2     
   3 C3             0.3817     2.1374    -0.2200 C.2     
   4 C4             1.5543     1.4259    -0.3355 C.2     
   5 S5             1.2102    -0.2966    -0.2634 S.3     
   6 C6             2.8957     2.0186    -0.4961 C.ar    
   7 C7             3.9493     1.6043     0.3248 C.ar    
   8 C8             3.1200     2.9917    -1.4728 C.ar    
   9 C9             4.3760     3.5418    -1.6186 C.ar    
  10 C10            5.4155     3.1313    -0.7987 C.ar    
  11 C11            5.2015     2.1624     0.1689 C.ar    
  12 C12            0.3342     3.6190    -0.2445 C.ar    
  13 C13           -0.4706     4.2770    -1.1737 C.ar    
  14 C14            1.0898     4.3574     0.6654 C.ar    
  15 C15            1.0430     5.7356     0.6402 C.ar    
  16 C16            0.2444     6.3876    -0.2893 C.ar    
  17 C17           -0.5128     5.6554    -1.1935 C.ar    
  18 C18           -1.5400    -1.0210     0.0547 C.2     
  19 O19           -2.7087    -0.7034     0.1775 O.2     
  20 N20           -1.1934    -2.3234     0.0421 N.am    
  21 C21           -0.4734    -4.0732     2.2123 C.ar    
  22 Cl22           3.6822     0.3912     1.5376 Cl      
  23 C23           -0.2986    -5.5966     0.2133 C.2     
  24 N24           -1.2113    -6.5804     0.3382 N.am    
  25 O25            0.7736    -5.8262    -0.3050 O.2     
  26 O26            0.2002     7.7458    -0.3112 O.3     
  27 C27           -0.6423     8.3518    -1.2936 C.3     
  28 C28           -0.5623     9.8742    -1.1649 C.3     
  29 C29           -1.4643    10.5230    -2.2168 C.3     
  30 F30            6.6438     3.6740    -0.9472 F       
  31 C31            0.5896    -4.6669     2.8667 C.ar    
  32 C32            0.7182    -4.5356     4.2368 C.ar    
  33 C33           -0.2160    -3.8101     4.9523 C.ar    
  34 C34           -1.2785    -3.2156     4.2977 C.ar    
  35 C35           -1.4079    -3.3481     2.9278 C.ar    
  36 O36           -1.3896    11.9450    -2.0967 O.3     
  37 C37           -1.9008    -3.6085     0.1457 C.3     
  38 C38           -0.6103    -4.2111     0.7178 C.3     
  39 C39            0.0581    -3.0849    -0.0877 C.3     
  40 H40           -1.7366     1.7727     0.0169 H       
  41 H41            2.3113     3.3125    -2.1127 H       
  42 H42            4.5503     4.2940    -2.3738 H       
  43 H43            6.0153     1.8469     0.8051 H       
  44 H44           -1.0599     3.7079    -1.8774 H       
  45 H45            1.7108     3.8507     1.3893 H       
  46 H46            1.6280     6.3081     1.3448 H       
  47 H47           -1.1331     6.1657    -1.9154 H       
  48 H48           -0.9848    -7.4876     0.0802 H       
  49 H49           -2.0946    -6.3812     0.6860 H       
  50 H50           -0.3126     8.0534    -2.2888 H       
  51 H51           -1.6715     8.0276    -1.1394 H       
  52 H52           -0.8920    10.1726    -0.1698 H       
  53 H53            0.4669    10.1983    -1.3191 H       
  54 H54           -1.1346    10.2247    -3.2120 H       
  55 H55           -2.4935    10.1989    -2.0627 H       
  56 H56            1.3194    -5.2337     2.3077 H       
  57 H57            1.5483    -5.0001     4.7482 H       
  58 H58           -0.1159    -3.7081     6.0228 H       
  59 H59           -2.0087    -2.6494     4.8568 H       
  60 H60           -2.2382    -2.8839     2.4165 H       
  61 H61           -1.9378    12.4229    -2.7340 H       
  62 H62           -2.7259    -3.5937     0.8578 H       
  63 H63           -2.1844    -4.0270    -0.8200 H       
  64 H64            0.2944    -3.3664    -1.1139 H       
  65 H65            0.9002    -2.6233     0.4278 H       
@<TRIPOS>BOND
   1    1    2 2
   2    1    3 1
   3    1   40 1
   4    2   18 1
   5    2    5 1
   6    3    4 2
   7    3   12 1
   8    4    5 1
   9    4    6 1
  10    6    7 ar
  11    6    8 ar
  12    7   22 1
  13    7   11 ar
  14    8    9 ar
  15    8   41 1
  16    9   10 ar
  17    9   42 1
  18   10   11 ar
  19   10   30 1
  20   11   43 1
  21   12   13 ar
  22   12   14 ar
  23   13   17 ar
  24   13   44 1
  25   14   15 ar
  26   14   45 1
  27   15   16 ar
  28   15   46 1
  29   16   17 ar
  30   16   26 1
  31   17   47 1
  32   18   19 2
  33   18   20 am
  34   20   37 1
  35   20   39 1
  36   21   31 ar
  37   21   35 ar
  38   21   38 1
  39   23   24 am
  40   23   25 2
  41   23   38 1
  42   24   48 1
  43   24   49 1
  44   26   27 1
  45   27   28 1
  46   27   50 1
  47   27   51 1
  48   28   29 1
  49   28   52 1
  50   28   53 1
  51   29   36 1
  52   29   54 1
  53   29   55 1
  54   31   32 ar
  55   31   56 1
  56   32   33 ar
  57   32   57 1
  58   33   34 ar
  59   33   58 1
  60   34   35 ar
  61   34   59 1
  62   35   60 1
  63   36   61 1
  64   37   38 1
  65   37   62 1
  66   37   63 1
  67   38   39 1
  68   39   64 1
  69   39   65 1

#	End of record

