#	Name: ASD05143094
#	Creating user name:	WinNT
#	Creation time:	15. 06. 2019 20:57

#	Modifying user name:	WinNT
#	Modification time:	15. 06. 2019 20:57

#	Program:	/corina/corina34_cracker 3.40 0067  02.08.2006

@<TRIPOS>MOLECULE
ASD05143094
 147  150    0    0    0
SMALL
NO_CHARGES


@<TRIPOS>ATOM
   1 C1            -3.0920     4.1733    -1.6090 C.2     
   2 C2            -3.3225     2.9074    -0.8245 C.3     
   3 N3            -2.0350     4.9594    -1.3244 N.am    
   4 O4            -3.8550     4.4820    -2.4998 O.2     
   5 C5            -1.8109     6.1900    -2.0871 C.3     
   6 C6            -3.0163     7.1180    -1.9236 C.3     
   7 C7            -1.6312     5.8520    -3.5447 C.2     
   8 C8            -3.1245     7.5610    -0.4631 C.3     
   9 C9            -4.3299     8.4890    -0.2996 C.3     
  10 N10           -4.4335     8.9131     1.0988 N.pl3   
  11 C11           -5.4473     9.7563     1.4881 C.2     
  12 N12           -5.5445    10.1543     2.8005 N.pl3   
  13 N13           -6.3163    10.1782     0.6130 N.2     
  14 O14           -2.0315     4.7910    -3.9749 O.2     
  15 N15           -1.0258     6.7286    -4.3701 N.am    
  16 C16           -0.8511     6.4000    -5.7871 C.3     
  17 C17           -0.7417     7.6912    -6.6000 C.3     
  18 C18           -1.1104     7.4151    -8.0348 C.2     
  19 N19           -1.7662     8.3732    -8.7457 N.am    
  20 C20           -2.0948     8.0465   -10.1475 C.3     
  21 C21           -1.7698     9.2564   -11.0261 C.3     
  22 C22           -0.8123     8.8338   -12.1421 C.3     
  23 C23            0.4569     9.6855   -12.0754 C.3     
  24 C24            1.2548     9.5134   -13.3695 C.3     
  25 N25            2.6446     9.9538   -13.1357 N.am    
  26 C26            0.6364    10.3510   -14.4590 C.2     
  27 N27           -0.4545     9.9064   -15.1137 N.am    
  28 O28            1.1204    11.4252   -14.7467 O.2     
  29 C29            3.5828     8.9738   -13.0240 C.2     
  30 O30            3.2663     7.8066   -13.1160 O.2     
  31 C31            5.0201     9.3587   -12.7850 C.3     
  32 N32            5.7280     8.1991   -12.1957 N.am    
  33 C33            5.6770     9.7410   -14.1128 C.3     
  34 C34            6.1440     8.3621   -10.9048 C.2     
  35 O35            5.9337     9.4008   -10.3150 O.2     
  36 C36            6.8685     7.2281   -10.2264 C.3     
  37 N37            6.6450     7.3247    -8.7699 N.am    
  38 C38            6.3270     5.8928   -10.7409 C.3     
  39 C39            6.2204     6.1936    -8.1429 C.2     
  40 O40            6.0518     5.1693    -8.7701 O.2     
  41 C41            5.9633     6.2315    -6.6583 C.3     
  42 C42            7.0749    10.2420   -13.8558 C.2     
  43 C43            8.2821     9.4239   -13.7172 C.ar    
  44 C44            9.3379    10.3247   -13.4882 C.ar    
  45 N45            8.7987    11.5915   -13.4900 N.pl3   
  46 C46            7.4509    11.5231   -13.7161 C.2     
  47 C47            8.5355     8.0517   -13.7682 C.ar    
  48 C48            9.8099     7.5905   -13.5951 C.ar    
  49 C49           10.8554     8.4754   -13.3684 C.ar    
  50 C50           10.6278     9.8329   -13.3151 C.ar    
  51 N51            4.8625     5.2915    -6.3461 N.am    
  52 C52            5.5625     7.6482    -6.2423 C.3     
  53 C53            6.7145     8.5885    -6.4874 C.ar    
  54 C54            6.4885     9.8227    -7.0723 C.ar    
  55 C55            7.5480    10.6857    -7.2969 C.ar    
  56 C56            8.8293    10.3141    -6.9370 C.ar    
  57 C57            9.0537     9.0811    -6.3529 C.ar    
  58 C58            7.9962     8.2212    -6.1231 C.ar    
  59 C59            0.4050     5.5863    -5.9626 C.2     
  60 O60            0.4899     4.7725    -6.8579 O.2     
  61 C61            4.8109     5.8462   -10.5408 C.3     
  62 C62            4.2583     4.5470   -11.1304 C.3     
  63 N63            2.8066     4.5023   -10.9388 N.pl3   
  64 C64            2.0865     3.4218   -11.3906 C.2     
  65 N65            2.7288     2.3832   -12.0224 N.pl3   
  66 N66            0.7949     3.3820   -11.2201 N.2     
  67 N67            1.4434     5.7773    -5.1033 N.am    
  68 C68            2.6408     4.9409    -5.3189 C.3     
  69 C69            3.8023     5.8326    -5.6750 C.2     
  70 O70            3.7964     7.0069    -5.3718 O.2     
  71 C71            2.3801     3.9581    -6.4622 C.3     
  72 C72            1.3394     2.9270    -6.0210 C.3     
  73 C73            0.9729     2.0509    -7.1911 C.2     
  74 O74           -0.8265     6.3541    -8.5493 O.2     
  75 O75            1.4928     2.2333    -8.2716 O.2     
  76 N76            0.0673     1.0647    -7.0370 N.am    
  77 F77            5.2354    10.1849    -7.4241 F       
  78 H78           -2.5381     2.7960    -0.0759 H       
  79 H79           -4.2924     2.9581    -0.3297 H       
  80 H80           -3.3037     2.0525    -1.5004 H       
  81 H81           -1.4225     4.7105    -0.6146 H       
  82 H82           -0.9153     6.6890    -1.7168 H       
  83 H83           -2.8898     7.9935    -2.5604 H       
  84 H84           -3.9244     6.5880    -2.2107 H       
  85 H85           -3.2509     6.6855     0.1737 H       
  86 H86           -2.2163     8.0910    -0.1760 H       
  87 H87           -4.2034     9.3645    -0.9365 H       
  88 H88           -5.2380     7.9589    -0.5868 H       
  89 H89           -3.7868     8.5992     1.7500 H       
  90 H90           -4.8978     9.8404     3.4517 H       
  91 H91           -6.2598    10.7492     3.0751 H       
  92 H92           -7.0315    10.7730     0.8877 H       
  93 H93           -0.7056     7.5771    -4.0260 H       
  94 H94           -1.7085     5.8236    -6.1345 H       
  95 H95           -1.4200     8.4384    -6.1880 H       
  96 H96            0.2813     8.0643    -6.5533 H       
  97 H97           -2.0051     9.2267    -8.3515 H       
  98 H98           -1.5029     7.1905   -10.4714 H       
  99 H99           -3.1560     7.8109   -10.2286 H       
 100 H100          -2.6893     9.6450   -11.4640 H       
 101 H101          -1.3009    10.0308   -10.4190 H       
 102 H102          -0.5515     7.7827   -12.0184 H       
 103 H103          -1.2954     8.9768   -13.1087 H       
 104 H104           0.1850    10.7339   -11.9529 H       
 105 H105           1.0646     9.3663   -11.2287 H       
 106 H106           1.2491     8.4644   -13.6652 H       
 107 H107           2.8771    10.8929   -13.0656 H       
 108 H108          -0.8416     9.0473   -14.8836 H       
 109 H109          -0.8526    10.4455   -15.8150 H       
 110 H110           5.0633    10.2024   -12.0961 H       
 111 H111           5.8852     7.3805   -12.6918 H       
 112 H112           5.7181     8.8669   -14.7627 H       
 113 H113           5.0929    10.5250   -14.5947 H       
 114 H114           7.9355     7.2978   -10.4377 H       
 115 H115           6.7933     8.1516    -8.2849 H       
 116 H116           6.5567     5.7921   -11.8017 H       
 117 H117           6.7916     5.0755   -10.1893 H       
 118 H118           6.8640     5.9310    -6.1231 H       
 119 H119           9.3001    12.4108   -13.3548 H       
 120 H120           6.7868    12.3732   -13.7669 H       
 121 H121           7.7271     7.3574   -13.9435 H       
 122 H122          10.0055     6.5291   -13.6346 H       
 123 H123          11.8573     8.0956   -13.2331 H       
 124 H124          11.4479    10.5132   -13.1385 H       
 125 H125           4.8919     4.3559    -6.6007 H       
 126 H126           4.7009     7.9688    -6.8280 H       
 127 H127           5.3055     7.6569    -5.1831 H       
 128 H128           7.3729    11.6487    -7.7534 H       
 129 H129           9.6558    10.9868    -7.1124 H       
 130 H130          10.0556     8.7913    -6.0723 H       
 131 H131           8.1727     7.2584    -5.6667 H       
 132 H132           4.5836     5.8872    -9.4755 H       
 133 H133           4.3517     6.6974   -11.0433 H       
 134 H134           4.4856     4.5059   -12.1957 H       
 135 H135           4.7175     3.6957   -10.6279 H       
 136 H136           2.3535     5.2350   -10.4931 H       
 137 H137           3.6900     2.4128   -12.1493 H       
 138 H138           2.2207     1.6209   -12.3412 H       
 139 H139           0.2868     2.6197   -11.5389 H       
 140 H140           1.3991     6.4294    -4.3865 H       
 141 H141           2.8700     4.3898    -4.4069 H       
 142 H142           2.0076     4.5015    -7.3306 H       
 143 H143           3.3081     3.4492    -6.7226 H       
 144 H144           1.7536     2.3117    -5.2222 H       
 145 H145           0.4491     3.4412    -5.6591 H       
 146 H146          -0.3485     0.9188    -6.1728 H       
 147 H147          -0.1686     0.5008    -7.7901 H       
@<TRIPOS>BOND
   1    1    2 1
   2    1    3 am
   3    1    4 2
   4    2   78 1
   5    2   79 1
   6    2   80 1
   7    3    5 1
   8    3   81 1
   9    5    6 1
  10    5    7 1
  11    5   82 1
  12    6    8 1
  13    6   83 1
  14    6   84 1
  15    7   14 2
  16    7   15 am
  17    8    9 1
  18    8   85 1
  19    8   86 1
  20    9   10 1
  21    9   87 1
  22    9   88 1
  23   10   11 1
  24   10   89 1
  25   11   12 1
  26   11   13 2
  27   12   90 1
  28   12   91 1
  29   13   92 1
  30   15   16 1
  31   15   93 1
  32   16   17 1
  33   16   59 1
  34   16   94 1
  35   17   18 1
  36   17   95 1
  37   17   96 1
  38   18   19 am
  39   18   74 2
  40   19   20 1
  41   19   97 1
  42   20   21 1
  43   20   98 1
  44   20   99 1
  45   21   22 1
  46   21  100 1
  47   21  101 1
  48   22   23 1
  49   22  102 1
  50   22  103 1
  51   23   24 1
  52   23  104 1
  53   23  105 1
  54   24   25 1
  55   24   26 1
  56   24  106 1
  57   25   29 am
  58   25  107 1
  59   26   27 am
  60   26   28 2
  61   27  108 1
  62   27  109 1
  63   29   30 2
  64   29   31 1
  65   31   32 1
  66   31   33 1
  67   31  110 1
  68   32   34 am
  69   32  111 1
  70   33   42 1
  71   33  112 1
  72   33  113 1
  73   34   35 2
  74   34   36 1
  75   36   37 1
  76   36   38 1
  77   36  114 1
  78   37   39 am
  79   37  115 1
  80   38   61 1
  81   38  116 1
  82   38  117 1
  83   39   40 2
  84   39   41 1
  85   41   51 1
  86   41   52 1
  87   41  118 1
  88   42   43 1
  89   42   46 2
  90   43   44 ar
  91   43   47 ar
  92   44   45 1
  93   44   50 ar
  94   45   46 1
  95   45  119 1
  96   46  120 1
  97   47   48 ar
  98   47  121 1
  99   48   49 ar
 100   48  122 1
 101   49   50 ar
 102   49  123 1
 103   50  124 1
 104   51   69 am
 105   51  125 1
 106   52   53 1
 107   52  126 1
 108   52  127 1
 109   53   54 ar
 110   53   58 ar
 111   54   55 ar
 112   54   77 1
 113   55   56 ar
 114   55  128 1
 115   56   57 ar
 116   56  129 1
 117   57   58 ar
 118   57  130 1
 119   58  131 1
 120   59   60 2
 121   59   67 am
 122   61   62 1
 123   61  132 1
 124   61  133 1
 125   62   63 1
 126   62  134 1
 127   62  135 1
 128   63   64 1
 129   63  136 1
 130   64   65 1
 131   64   66 2
 132   65  137 1
 133   65  138 1
 134   66  139 1
 135   67   68 1
 136   67  140 1
 137   68   69 1
 138   68   71 1
 139   68  141 1
 140   69   70 2
 141   71   72 1
 142   71  142 1
 143   71  143 1
 144   72   73 1
 145   72  144 1
 146   72  145 1
 147   73   75 2
 148   73   76 am
 149   76  146 1
 150   76  147 1

#	End of record

