#	Name: ASD00310186
#	Creating user name:	WinNT
#	Creation time:	15. 06. 2019 18:33

#	Modifying user name:	WinNT
#	Modification time:	15. 06. 2019 18:33

#	Program:	/corina/corina34_cracker 3.40 0067  02.08.2006

@<TRIPOS>MOLECULE
ASD00310186
  45   48    0    0    0
SMALL
NO_CHARGES


@<TRIPOS>ATOM
   1 N1            -0.0163     1.3498     0.0095 N.pl3   
   2 C2             0.0021    -0.0041     0.0020 C.2     
   3 C3             1.2923    -0.4484    -0.0127 C.2     
   4 C4             2.1477     0.7537    -0.0144 C.ar    
   5 C5             3.5235     0.9578    -0.0260 C.ar    
   6 C6             4.0248     2.2535    -0.0235 C.ar    
   7 C7             3.1472     3.3435    -0.0088 C.ar    
   8 C8             1.7857     3.1434     0.0028 C.ar    
   9 C9             1.2700     1.8500    -0.0001 C.ar    
  10 C10            1.7402    -1.8454    -0.0240 C.2     
  11 O11            2.9286    -2.1028    -0.0364 O.2     
  12 O12            0.8341    -2.8441    -0.0208 O.3     
  13 C13            6.1231     3.0880     1.0544 C.ar    
  14 C14            5.4901     2.4815    -0.0358 C.ar    
  15 C15            6.2585     2.0934    -1.1362 C.ar    
  16 C16            7.6211     2.3256    -1.1032 C.ar    
  17 C17            8.1820     2.9336     0.0149 C.ar    
  18 N18            7.4292     3.2912     1.0453 N.ar    
  19 N19            9.5509     3.1688     0.0523 N.3     
  20 C20            9.9399     3.8159     1.3138 C.3     
  21 C21           11.4594     4.0019     1.3382 C.3     
  22 O22           11.8602     4.7609     0.1942 O.3     
  23 C23           11.4977     4.1594    -1.0516 C.3     
  24 C24            9.9786     3.9750    -1.1002 C.3     
  25 O25            5.3898     3.4754     2.1274 O.3     
  26 C26            6.0954     4.0886     3.2082 C.3     
  27 Cl27           3.7807     4.9598    -0.0045 Cl      
  28 H28           -0.8206     1.8921     0.0164 H       
  29 H29           -0.8729    -0.6372     0.0073 H       
  30 H30            4.1979     0.1143    -0.0367 H       
  31 H31            1.1162     3.9908     0.0141 H       
  32 H32            1.1772    -3.7481    -0.0286 H       
  33 H33            5.7989     1.6226    -1.9927 H       
  34 H34            8.2438     2.0375    -1.9372 H       
  35 H35            9.4530     4.7881     1.3894 H       
  36 H36            9.6364     3.1898     2.1528 H       
  37 H37           11.7466     4.5326     2.2459 H       
  38 H38           11.9458     3.0267     1.3166 H       
  39 H39           11.8125     4.8040    -1.8722 H       
  40 H40           11.9852     3.1888    -1.1427 H       
  41 H41            9.7032     3.4650    -2.0234 H       
  42 H42            9.4923     4.9498    -1.0632 H       
  43 H43            5.3927     4.3493     3.9995 H       
  44 H44            6.8394     3.3935     3.5973 H       
  45 H45            6.5925     4.9909     2.8520 H       
@<TRIPOS>BOND
   1    1    2 1
   2    1    9 1
   3    1   28 1
   4    2    3 2
   5    2   29 1
   6    3    4 1
   7    3   10 1
   8    4    5 ar
   9    4    9 ar
  10    5    6 ar
  11    5   30 1
  12    6    7 ar
  13    6   14 1
  14    7    8 ar
  15    7   27 1
  16    8    9 ar
  17    8   31 1
  18   10   11 2
  19   10   12 1
  20   12   32 1
  21   13   14 ar
  22   13   18 ar
  23   13   25 1
  24   14   15 ar
  25   15   16 ar
  26   15   33 1
  27   16   17 ar
  28   16   34 1
  29   17   18 ar
  30   17   19 1
  31   19   20 1
  32   19   24 1
  33   20   21 1
  34   20   35 1
  35   20   36 1
  36   21   22 1
  37   21   37 1
  38   21   38 1
  39   22   23 1
  40   23   24 1
  41   23   39 1
  42   23   40 1
  43   24   41 1
  44   24   42 1
  45   25   26 1
  46   26   43 1
  47   26   44 1
  48   26   45 1

#	End of record

