#	Name: ASD05740051
#	Creating user name:	WinNT
#	Creation time:	15. 06. 2019 21:02

#	Modifying user name:	WinNT
#	Modification time:	15. 06. 2019 21:02

#	Program:	/corina/corina34_cracker 3.40 0067  02.08.2006

@<TRIPOS>MOLECULE
ASD05740051
  49   50    0    0    0
SMALL
NO_CHARGES


@<TRIPOS>ATOM
   1 C1            -0.0225     1.8097     0.0120 C.3     
   2 C2            -1.4501     1.6399     5.7860 C.3     
   3 N3             2.2031     6.2454     7.5843 N.ar    
   4 C4             2.8052     5.6093     8.5830 C.ar    
   5 C5             1.2833     5.6680     6.8399 C.ar    
   6 C6             0.9120     4.3446     7.0863 C.ar    
   7 C7             1.5310     3.6374     8.1390 C.ar    
   8 C8             2.4928     4.2917     8.8934 C.ar    
   9 C9            -0.1048     3.6681     6.2810 C.2     
  10 C10           -0.4089     2.3791     6.5863 C.2     
  11 C11            0.2503     1.7342     7.6529 C.2     
  12 O12            1.1832     2.3607     8.3896 O.3     
  13 C13           -0.7761     0.8449     4.6975 C.2     
  14 C14           -0.3476    -0.4107     4.8186 C.2     
  15 O15           -0.0340     0.5791     7.9139 O.2     
  16 N16            3.7655     6.2739     9.3306 N.pl3   
  17 C17           -0.7953     4.3799     5.1462 C.3     
  18 S18           -0.4434     1.4323     3.0736 S.3     
  19 C19            0.2830    -0.1073     2.6315 C.2     
  20 C20            0.2434    -0.9397     3.6821 C.2     
  21 N21            0.8226    -0.4138     1.3808 N.am    
  22 S22            0.0021    -0.0041     0.0020 S.o2    
  23 O23           -1.3056    -0.5216     0.2056 O.2     
  24 O24            0.8248    -0.4858    -1.0517 O.2     
  25 C25            4.4388     5.5865    10.4353 C.3     
  26 H26            1.0001     2.1870     0.0043 H       
  27 H27           -0.5497     2.1708    -0.8711 H       
  28 H28           -0.5327     2.1613     0.9088 H       
  29 H29           -2.0005     0.9648     6.4413 H       
  30 H30           -2.1404     2.3553     5.3390 H       
  31 H31            0.8163     6.2183     6.0365 H       
  32 H32            2.9902     3.7861     9.7079 H       
  33 H33           -0.4526    -0.9741     5.7340 H       
  34 H34            3.9915     7.1939     9.1221 H       
  35 H35           -0.4113     5.3970     5.0680 H       
  36 H36           -0.6058     3.8473     4.2143 H       
  37 H37           -1.8683     4.4102     5.3356 H       
  38 H38            0.6342    -1.9457     3.6433 H       
  39 H39            1.6782    -0.8667     1.3196 H       
  40 H40            3.6999     5.2745    11.1734 H       
  41 H41            4.9626     4.7105    10.0529 H       
  42 H42            5.1549     6.2631    10.9017 H       
  43 C43           10.6821    14.8632    18.0417 C.3     
  44 N44           10.7019    13.3983    18.0336 N.2     
  45 C45           11.2427    12.7858    17.0876 C.1     
  46 O46           11.7652    12.1939    16.1734 O.2     
  47 H47           11.7047    15.2405    18.0339 H       
  48 H48           10.1549    15.2243    17.1586 H       
  49 H49           10.1719    15.2147    18.9385 H       
@<TRIPOS>BOND
   1    1   22 1
   2    1   26 1
   3    1   27 1
   4    1   28 1
   5    2   10 1
   6    2   13 1
   7    2   29 1
   8    2   30 1
   9    3    4 ar
  10    3    5 ar
  11    4   16 1
  12    4    8 ar
  13    5    6 ar
  14    5   31 1
  15    6    7 ar
  16    6    9 1
  17    7    8 ar
  18    7   12 1
  19    8   32 1
  20    9   10 2
  21    9   17 1
  22   10   11 1
  23   11   12 1
  24   11   15 2
  25   13   14 2
  26   13   18 1
  27   14   20 1
  28   14   33 1
  29   16   25 1
  30   16   34 1
  31   17   35 1
  32   17   36 1
  33   17   37 1
  34   18   19 1
  35   19   20 2
  36   19   21 1
  37   20   38 1
  38   21   22 am
  39   21   39 1
  40   22   23 2
  41   22   24 2
  42   25   40 1
  43   25   41 1
  44   25   42 1
  45   43   44 1
  46   43   47 1
  47   43   48 1
  48   43   49 1
  49   44   45 2
  50   45   46 2

#	End of record

