#	Name: ASD01230293
#	Creating user name:	WinNT
#	Creation time:	15. 06. 2019 19:12

#	Modifying user name:	WinNT
#	Modification time:	15. 06. 2019 19:12

#	Program:	/corina/corina34_cracker 3.40 0067  02.08.2006

@<TRIPOS>MOLECULE
ASD01230293
  26   27    0    0    0
SMALL
NO_CHARGES


@<TRIPOS>ATOM
   1 C1            -0.5882     1.4443    -0.2386 C.ar    
   2 C2            -0.8740     0.1042    -0.3783 C.ar    
   3 C3             0.1496    -0.8219    -0.4797 C.ar    
   4 C4             1.4649    -0.3952    -0.4266 C.ar    
   5 C5             1.7520     0.9453    -0.2730 C.ar    
   6 C6             0.7374     1.8876    -0.1972 C.ar    
   7 N7             0.9569     3.2563    -0.1195 N.3     
   8 S8             3.4387     1.4640    -0.1403 S.o2    
   9 N9             3.3478     3.1325    -0.1515 N.am    
  10 C10            2.1749     3.6929     0.5506 C.3     
  11 Cl11          -0.2145    -2.5084    -0.6718 Cl      
  12 O12            3.8877     1.0832     1.1531 O.2     
  13 O13            4.0861     1.0772    -1.3446 O.2     
  14 C14           -0.2197     3.9481     0.4237 C.3     
  15 C15           -0.3685     3.6119     1.9088 C.3     
  16 F16           -0.3853     2.2227     2.0731 F       
  17 F17            0.7085     4.1525     2.6195 F       
  18 H18           -1.3945     2.1590    -0.1648 H       
  19 H19           -1.9019    -0.2256    -0.4086 H       
  20 H20            2.2680    -1.1130    -0.5052 H       
  21 H21            4.0125     3.6896    -0.5859 H       
  22 H22            2.2278     4.7816     0.5361 H       
  23 H23            2.1680     3.3423     1.5826 H       
  24 H24           -0.0950     5.0245     0.3055 H       
  25 H25           -1.1114     3.6245    -0.1132 H       
  26 H26           -1.3005     4.0336     2.2852 H       
@<TRIPOS>BOND
   1    1    2 ar
   2    1    6 ar
   3    1   18 1
   4    2    3 ar
   5    2   19 1
   6    3    4 ar
   7    3   11 1
   8    4    5 ar
   9    4   20 1
  10    5    6 ar
  11    5    8 1
  12    6    7 1
  13    7   10 1
  14    7   14 1
  15    8    9 am
  16    8   12 2
  17    8   13 2
  18    9   10 1
  19    9   21 1
  20   10   22 1
  21   10   23 1
  22   14   15 1
  23   14   24 1
  24   14   25 1
  25   15   16 1
  26   15   17 1
  27   15   26 1

#	End of record

