#	Name: ASD03091204
#	Creating user name:	WinNT
#	Creation time:	15. 06. 2019 20:30

#	Modifying user name:	WinNT
#	Modification time:	15. 06. 2019 20:30

#	Program:	/corina/corina34_cracker 3.40 0067  02.08.2006

@<TRIPOS>MOLECULE
ASD03091204
  51   55    0    0    0
SMALL
NO_CHARGES


@<TRIPOS>ATOM
   1 N1             0.0119     1.1728     0.4595 N.2     
   2 C2             0.0224    -0.0421    -0.0239 C.2     
   3 N3             1.1461    -0.6328    -0.5359 N.am    
   4 C4             2.3211     0.0384    -0.5617 C.2     
   5 C5             2.3328     1.4069    -0.0236 C.ar    
   6 C6             3.4923     2.1786    -0.0058 C.ar    
   7 C7             3.4460     3.4617     0.5129 C.ar    
   8 C8             2.2508     3.9781     1.0138 C.ar    
   9 C9             1.1066     3.2336     1.0035 C.ar    
  10 C10            1.1242     1.9349     0.4852 C.ar    
  11 O11            3.3302    -0.4716    -1.0129 O.2     
  12 N12            4.6038     4.2439     0.5352 N.3     
  13 C13            5.2156     4.3277    -0.8155 C.3     
  14 C14            6.6835     4.7264    -0.5568 C.3     
  15 C15            6.9749     4.2536     0.8930 C.3     
  16 C16            5.6557     3.6138     1.3733 C.3     
  17 N17            8.7067     3.4393    -0.5521 N.3     
  18 C18            7.5988     3.8603    -1.4470 C.3     
  19 C19            8.0388     3.1465     0.7417 C.3     
  20 C20            9.3831     2.2458    -1.0773 C.3     
  21 C21            1.0766    -1.9996    -1.0585 C.3     
  22 C22           -1.2382    -0.8140    -0.0167 C.ar    
  23 C23           -2.0748    -0.7795     1.1002 C.ar    
  24 C24           -3.2509    -1.5025     1.1000 C.ar    
  25 C25           -3.6004    -2.2608    -0.0050 C.ar    
  26 C26           -2.7749    -2.2989    -1.1142 C.ar    
  27 C27           -1.5997    -1.5758    -1.1289 C.ar    
  28 Cl28          -4.2933    -1.4616     2.4876 Cl      
  29 H29            4.4185     1.7799    -0.3925 H       
  30 H30            2.2304     4.9805     1.4155 H       
  31 H31            0.1890     3.6469     1.3954 H       
  32 H32            5.1674     3.3600    -1.3149 H       
  33 H33            4.7147     5.0896    -1.4126 H       
  34 H34            6.8527     5.7950    -0.6892 H       
  35 H35            7.3009     5.0680     1.5399 H       
  36 H36            5.4866     3.8375     2.4266 H       
  37 H37            5.6753     2.5361     1.2114 H       
  38 H38            7.0565     2.9896    -1.8156 H       
  39 H39            7.9855     4.4482    -2.2794 H       
  40 H40            8.7574     3.1961     1.5598 H       
  41 H41            7.5644     2.1656     0.7108 H       
  42 H42            9.7940     2.4651    -2.0628 H       
  43 H43           10.1899     1.9590    -0.4029 H       
  44 H44            8.6673     1.4275    -1.1561 H       
  45 H45            0.7567    -1.9745    -2.1002 H       
  46 H46            2.0601    -2.4647    -0.9916 H       
  47 H47            0.3612    -2.5767    -0.4726 H       
  48 H48           -1.8025    -0.1890     1.9625 H       
  49 H49           -4.5213    -2.8250    -0.0005 H       
  50 H50           -3.0530    -2.8924    -1.9725 H       
  51 H51           -0.9587    -1.6029    -1.9977 H       
@<TRIPOS>BOND
   1    1    2 2
   2    1   10 1
   3    2    3 1
   4    2   22 1
   5    3    4 am
   6    3   21 1
   7    4    5 1
   8    4   11 2
   9    5    6 ar
  10    5   10 ar
  11    6    7 ar
  12    6   29 1
  13    7    8 ar
  14    7   12 1
  15    8    9 ar
  16    8   30 1
  17    9   10 ar
  18    9   31 1
  19   12   13 1
  20   12   16 1
  21   13   14 1
  22   13   32 1
  23   13   33 1
  24   14   15 1
  25   14   18 1
  26   14   34 1
  27   15   16 1
  28   15   19 1
  29   15   35 1
  30   16   36 1
  31   16   37 1
  32   17   18 1
  33   17   19 1
  34   17   20 1
  35   18   38 1
  36   18   39 1
  37   19   40 1
  38   19   41 1
  39   20   42 1
  40   20   43 1
  41   20   44 1
  42   21   45 1
  43   21   46 1
  44   21   47 1
  45   22   23 ar
  46   22   27 ar
  47   23   24 ar
  48   23   48 1
  49   24   25 ar
  50   24   28 1
  51   25   26 ar
  52   25   49 1
  53   26   27 ar
  54   26   50 1
  55   27   51 1

#	End of record

