#	Name: ASD03910045
#	Creating user name:	WinNT
#	Creation time:	15. 06. 2019 20:47

#	Modifying user name:	WinNT
#	Modification time:	15. 06. 2019 20:47

#	Program:	/corina/corina34_cracker 3.40 0067  02.08.2006

@<TRIPOS>MOLECULE
ASD03910045
  67   68    0    0    0
SMALL
NO_CHARGES


@<TRIPOS>ATOM
   1 C1            -0.5648    -0.4459     0.4629 C.ar    
   2 C2             0.3557     0.1125     1.3306 C.ar    
   3 C3             0.0584     1.2875     1.9965 C.ar    
   4 C4            -1.1599     1.9067     1.7969 C.ar    
   5 C5            -2.0866     1.3484     0.9262 C.ar    
   6 C6            -1.7825     0.1717     0.2544 C.ar    
   7 N7            -3.3217     1.9733     0.7218 N.am    
   8 C8            -3.4047     3.3185     0.7227 C.2     
   9 O9            -2.4287     3.9861     0.9922 O.2     
  10 C10           -4.5359     5.4883     0.4605 C.ar    
  11 C11           -4.1497     6.1927    -0.6649 C.ar    
  12 C12           -3.9947     7.5640    -0.6034 C.ar    
  13 C13           -4.2267     8.2344     0.5889 C.ar    
  14 C14           -4.6141     7.5253     1.7166 C.ar    
  15 C15           -4.7677     6.1540     1.6499 C.ar    
  16 O16           -4.0744     9.5833     0.6520 O.3     
  17 C17           -4.2057    10.1915     1.9385 C.3     
  18 C18           -5.5825     9.9164     2.4861 C.2     
  19 C19           -0.2367    -1.7265    -0.2606 C.3     
  20 C20            1.0645     1.8926     2.9412 C.3     
  21 O21           -6.3734     9.2639     1.8384 O.2     
  22 N22           -5.9348    10.3956     3.6955 N.am    
  23 C23           -4.7103     3.9931     0.3889 C.3     
  24 C24           -3.1544     9.6111     2.8866 C.3     
  25 C25           -3.9996    11.7022     1.8118 C.3     
  26 C26           -7.2732    10.1282     4.2278 C.3     
  27 C27           -7.1656     9.7140     5.6727 C.2     
  28 O28           -7.5567    10.4541     6.5441 O.2     
  29 O29           -6.6354     8.5229     5.9917 O.3     
  30 S30           -8.2824    11.6256     4.1029 Du      
  31 C31           -8.0627    11.6239     2.3063 C.3     
  32 C32           -9.6795    10.7458     4.8446 C.3     
  33 C33           -9.2916    13.1229     3.9781 C.3     
  34 H34            1.3088    -0.3702     1.4889 H       
  35 H35           -1.3918     2.8239     2.3178 H       
  36 H36           -2.5009    -0.2648    -0.4237 H       
  37 H37           -4.1183     1.4383     0.5795 H       
  38 H38           -3.9689     5.6703    -1.5927 H       
  39 H39           -3.6927     8.1137    -1.4826 H       
  40 H40           -4.7950     8.0448     2.6460 H       
  41 H41           -5.0693     5.6016     2.5276 H       
  42 H42           -0.5600    -2.5765     0.3402 H       
  43 H43           -0.7519    -1.7435    -1.2210 H       
  44 H44            0.8393    -1.7857    -0.4245 H       
  45 H45            1.7096     2.5797     2.3936 H       
  46 H46            0.5424     2.4347     3.7296 H       
  47 H47            1.6693     1.1010     3.3836 H       
  48 H48           -5.3022    10.9175     4.2135 H       
  49 H49           -5.0181     3.7110    -0.6179 H       
  50 H50           -5.4731     3.6818     1.1026 H       
  51 H51           -2.1620     9.9300     2.5679 H       
  52 H52           -3.3426     9.9671     3.8995 H       
  53 H53           -3.2097     8.5227     2.8679 H       
  54 H54           -4.6979    12.1039     1.0776 H       
  55 H55           -4.1762    12.1753     2.7779 H       
  56 H56           -2.9779    11.9039     1.4899 H       
  57 H57           -7.7391     9.3272     3.6539 H       
  58 H58           -6.5875     8.3012     6.9318 H       
  59 H59           -7.1746    12.2009     2.0484 H       
  60 H60           -7.9443    10.5986     1.9557 H       
  61 H61           -8.9367    12.0711     1.8329 H       
  62 H62          -10.6132    11.1607     4.4647 H       
  63 H63           -9.6207     9.6882     4.5875 H       
  64 H64           -9.6461    10.8587     5.9282 H       
  65 H65           -9.6189    13.4245     4.9731 H       
  66 H66           -8.7009    13.9230     3.5319 H       
  67 H67          -10.1626    12.9230     3.3541 H       
@<TRIPOS>BOND
   1    1    2 ar
   2    1   19 1
   3    1    6 ar
   4    2    3 ar
   5    2   34 1
   6    3    4 ar
   7    3   20 1
   8    4    5 ar
   9    4   35 1
  10    5    6 ar
  11    5    7 1
  12    6   36 1
  13    7    8 am
  14    7   37 1
  15    8    9 2
  16    8   23 1
  17   10   11 ar
  18   10   15 ar
  19   10   23 1
  20   11   12 ar
  21   11   38 1
  22   12   13 ar
  23   12   39 1
  24   13   14 ar
  25   13   16 1
  26   14   15 ar
  27   14   40 1
  28   15   41 1
  29   16   17 1
  30   17   18 1
  31   17   24 1
  32   17   25 1
  33   18   21 2
  34   18   22 am
  35   19   42 1
  36   19   43 1
  37   19   44 1
  38   20   45 1
  39   20   46 1
  40   20   47 1
  41   22   26 1
  42   22   48 1
  43   23   49 1
  44   23   50 1
  45   24   51 1
  46   24   52 1
  47   24   53 1
  48   25   54 1
  49   25   55 1
  50   25   56 1
  51   26   27 1
  52   26   30 1
  53   26   57 1
  54   27   28 2
  55   27   29 1
  56   29   58 1
  57   30   31 1
  58   30   32 1
  59   30   33 1
  60   31   59 1
  61   31   60 1
  62   31   61 1
  63   32   62 1
  64   32   63 1
  65   32   64 1
  66   33   65 1
  67   33   66 1
  68   33   67 1

#	End of record

