#	Name: ASD01350035
#	Creating user name:	WinNT
#	Creation time:	15. 06. 2019 19:16

#	Modifying user name:	WinNT
#	Modification time:	15. 06. 2019 19:16

#	Program:	/corina/corina34_cracker 3.40 0067  02.08.2006

@<TRIPOS>MOLECULE
ASD01350035
  56   58    0    0    0
SMALL
NO_CHARGES


@<TRIPOS>ATOM
   1 C1            -0.0184     1.5028     0.0103 C.3     
   2 C2             0.0021    -0.0041     0.0020 C.ar    
   3 C3             1.3954     2.0244    -0.0004 C.ar    
   4 O4            -0.7095     1.9761    -1.1474 O.3     
   5 C5            -0.1852    -0.7043     1.1791 C.ar    
   6 C6            -0.1664    -2.0865     1.1715 C.ar    
   7 C7             0.0392    -2.7685    -0.0132 C.ar    
   8 C8             0.2255    -2.0682    -1.1905 C.ar    
   9 C9             0.2024    -0.6861    -1.1836 C.ar    
  10 C10            2.0192     2.3551     1.1881 C.ar    
  11 C11            3.3160     2.8336     1.1783 C.ar    
  12 C12            3.9893     2.9810    -0.0200 C.ar    
  13 C13            3.3659     2.6494    -1.2084 C.ar    
  14 C14            2.0706     2.1668    -1.1982 C.ar    
  15 C15            5.4027     3.5036    -0.0308 C.3     
  16 C16           -2.1148     2.1498    -0.9549 C.3     
  17 C17           -2.6102     3.2607    -1.8446 C.ar    
  18 C18           -2.8422     0.8509    -1.3078 C.3     
  19 N19           -2.4480    -0.2032    -0.3636 N.3     
  20 C20           -3.5478     4.1594    -1.3711 C.ar    
  21 C21           -4.0023     5.1783    -2.1872 C.ar    
  22 C22           -3.5189     5.2988    -3.4767 C.ar    
  23 C23           -2.5806     4.4007    -3.9498 C.ar    
  24 C24           -2.1229     3.3843    -3.1323 C.ar    
  25 C25            6.2985     2.5683     0.7839 C.3     
  26 C26            5.9112     3.5692    -1.4723 C.3     
  27 C27            5.4335     4.9038     0.5851 C.3     
  28 H28           -0.5286     1.8543     0.9071 H       
  29 H29           -0.3458    -0.1715     2.1047 H       
  30 H30           -0.3119    -2.6336     2.0912 H       
  31 H31            0.0546    -3.8483    -0.0191 H       
  32 H32            0.3865    -2.6010    -2.1160 H       
  33 H33            0.3480    -0.1390    -2.1033 H       
  34 H34            1.4931     2.2400     2.1243 H       
  35 H35            3.8030     3.0927     2.1068 H       
  36 H36            3.8918     2.7649    -2.1446 H       
  37 H37            1.5835     1.9077    -2.1267 H       
  38 H38           -2.3101     2.4041     0.0869 H       
  39 H39           -3.9189     1.0093    -1.2466 H       
  40 H40           -2.5764     0.5492    -2.3209 H       
  41 H41           -2.6250     0.0796     0.5886 H       
  42 H42           -2.9153    -1.0719    -0.5757 H       
  43 H43           -3.9255     4.0652    -0.3637 H       
  44 H44           -4.7353     5.8800    -1.8176 H       
  45 H45           -3.8745     6.0945    -4.1145 H       
  46 H46           -2.2032     4.4947    -4.9574 H       
  47 H47           -1.3899     2.6826    -3.5019 H       
  48 H48            6.2766     1.5708     0.3452 H       
  49 H49            7.3208     2.9463     0.7761 H       
  50 H50            5.9363     2.5216     1.8109 H       
  51 H51            5.2731     4.2355    -2.0527 H       
  52 H52            6.9336     3.9472    -1.4801 H       
  53 H53            5.8893     2.5717    -1.9111 H       
  54 H54            5.0712     4.8571     1.6121 H       
  55 H55            6.4558     5.2818     0.5773 H       
  56 H56            4.7953     5.5701     0.0047 H       
@<TRIPOS>BOND
   1    1    2 1
   2    1    3 1
   3    1    4 1
   4    1   28 1
   5    2    5 ar
   6    2    9 ar
   7    3   10 ar
   8    3   14 ar
   9    4   16 1
  10    5    6 ar
  11    5   29 1
  12    6    7 ar
  13    6   30 1
  14    7    8 ar
  15    7   31 1
  16    8    9 ar
  17    8   32 1
  18    9   33 1
  19   10   11 ar
  20   10   34 1
  21   11   12 ar
  22   11   35 1
  23   12   13 ar
  24   12   15 1
  25   13   14 ar
  26   13   36 1
  27   14   37 1
  28   15   25 1
  29   15   26 1
  30   15   27 1
  31   16   17 1
  32   16   18 1
  33   16   38 1
  34   17   20 ar
  35   17   24 ar
  36   18   19 1
  37   18   39 1
  38   18   40 1
  39   19   41 1
  40   19   42 1
  41   20   21 ar
  42   20   43 1
  43   21   22 ar
  44   21   44 1
  45   22   23 ar
  46   22   45 1
  47   23   24 ar
  48   23   46 1
  49   24   47 1
  50   25   48 1
  51   25   49 1
  52   25   50 1
  53   26   51 1
  54   26   52 1
  55   26   53 1
  56   27   54 1
  57   27   55 1
  58   27   56 1

#	End of record

