#	Name: ASD08070642
#	Creating user name:	WinNT
#	Creation time:	15. 06. 2019 21:15

#	Modifying user name:	WinNT
#	Modification time:	15. 06. 2019 21:15

#	Program:	/corina/corina34_cracker 3.40 0067  02.08.2006

@<TRIPOS>MOLECULE
ASD08070642
  46   47    0    0    0
SMALL
NO_CHARGES


@<TRIPOS>ATOM
   1 C1            -0.3601     1.3693    -0.0369 C.2     
   2 C2            -0.4921    -0.1008    -0.0457 C.ar    
   3 C3             0.6482    -0.9063    -0.1085 C.ar    
   4 C4             0.5208    -2.2772    -0.1166 C.ar    
   5 C5            -0.7400    -2.8603    -0.0627 C.ar    
   6 C6            -1.8764    -2.0628    -0.0000 C.ar    
   7 C7            -1.7571    -0.6908     0.0147 C.ar    
   8 O8             0.7418     1.8810    -0.0844 O.2     
   9 N9            -1.4612     2.1444     0.0182 N.am    
  10 C10           -1.3282     3.5980     0.1437 C.3     
  11 C11           -1.2741     3.9792     1.6245 C.3     
  12 C12           -1.0503     5.4871     1.7551 C.3     
  13 C13           -1.1158     5.8864     3.2306 C.3     
  14 O14           -3.7954     3.9208    -0.3712 O.3     
  15 N15           -4.4935     4.6667    -1.0251 N.2     
  16 C16           -3.7607     5.5505    -1.6337 C.2     
  17 N17           -2.4794     5.3054    -1.3068 N.2     
  18 C18           -2.5119     4.2686    -0.5046 C.2     
  19 C19           -4.2558     6.6484    -2.5395 C.3     
  20 C20            0.3241     5.8496     1.1891 C.3     
  21 C21            1.7498    -3.1467    -0.1843 C.3     
  22 O22           -0.8615    -4.2119    -0.0716 O.3     
  23 C23           -2.1862    -4.7447    -0.0141 C.3     
  24 H24            1.6280    -0.4540    -0.1512 H       
  25 H25           -2.8542    -2.5196     0.0417 H       
  26 H26           -2.6405    -0.0717     0.0678 H       
  27 H27           -2.3418     1.7399    -0.0253 H       
  28 H28           -0.4118     3.9229    -0.3489 H       
  29 H29           -2.2148     3.7086     2.1040 H       
  30 H30           -0.4542     3.4471     2.1069 H       
  31 H31           -1.8235     6.0185     1.2002 H       
  32 H32           -0.3426     5.3550     3.7855 H       
  33 H33           -0.9564     6.9607     3.3237 H       
  34 H34           -2.0949     5.6281     3.6339 H       
  35 H35           -4.4609     7.5416    -1.9494 H       
  36 H36           -3.4949     6.8736    -3.2869 H       
  37 H37           -5.1696     6.3243    -3.0376 H       
  38 H38            0.5235     6.9062     1.3680 H       
  39 H39            1.0892     5.2474     1.6789 H       
  40 H40            0.3387     5.6537     0.1169 H       
  41 H41            2.0952    -3.3669     0.8257 H       
  42 H42            1.5082    -4.0779    -0.6968 H       
  43 H43            2.5348    -2.6243    -0.7310 H       
  44 H44           -2.1408    -5.8336    -0.0282 H       
  45 H45           -2.6716    -4.4131     0.9038 H       
  46 H46           -2.7566    -4.3936    -0.8741 H       
@<TRIPOS>BOND
   1    1    2 1
   2    1    8 2
   3    1    9 am
   4    2    3 ar
   5    2    7 ar
   6    3    4 ar
   7    3   24 1
   8    4    5 ar
   9    4   21 1
  10    5    6 ar
  11    5   22 1
  12    6    7 ar
  13    6   25 1
  14    7   26 1
  15    9   10 1
  16    9   27 1
  17   10   11 1
  18   10   18 1
  19   10   28 1
  20   11   12 1
  21   11   29 1
  22   11   30 1
  23   12   13 1
  24   12   20 1
  25   12   31 1
  26   13   32 1
  27   13   33 1
  28   13   34 1
  29   14   15 1
  30   14   18 1
  31   15   16 2
  32   16   17 1
  33   16   19 1
  34   17   18 2
  35   19   35 1
  36   19   36 1
  37   19   37 1
  38   20   38 1
  39   20   39 1
  40   20   40 1
  41   21   41 1
  42   21   42 1
  43   21   43 1
  44   22   23 1
  45   23   44 1
  46   23   45 1
  47   23   46 1

#	End of record

