#	Name: ASD05213017
#	Creating user name:	WinNT
#	Creation time:	15. 06. 2019 20:57

#	Modifying user name:	WinNT
#	Modification time:	15. 06. 2019 20:57

#	Program:	/corina/corina34_cracker 3.40 0067  02.08.2006

@<TRIPOS>MOLECULE
ASD05213017
  24   26    0    0    0
SMALL
NO_CHARGES


@<TRIPOS>ATOM
   1 S1            -0.0211     1.7077     0.0114 S.3     
   2 C2             0.0981     0.0010    -0.0491 C.2     
   3 C3             1.6830     1.8713     0.0256 C.2     
   4 N4             2.5475     0.8680     0.1132 N.2     
   5 C5             3.7831     1.3406     0.0965 C.ar    
   6 C6             3.7020     2.7595    -0.0103 C.ar    
   7 N7             2.3647     3.0594    -0.0577 N.pl3   
   8 C8             5.1220     0.7441     0.1609 C.ar    
   9 N9             6.1660     1.5686     0.1151 N.ar    
  10 C10            6.0028     2.8736     0.0156 C.ar    
  11 N11            4.8225     3.4598    -0.0462 N.ar    
  12 N12            5.2916    -0.6133     0.2648 N.pl3   
  13 S13           -1.2555    -1.1179     0.0691 S.3     
  14 C14           -0.1900    -2.4471    -0.0860 C.2     
  15 C15            1.1070    -1.9690    -0.2159 C.2     
  16 N16            1.2206    -0.6815    -0.1977 N.2     
  17 N17           -0.5880    -3.8811    -0.0815 N.pl3   
  18 O18            0.3278    -4.8191    -0.2087 O.2     
  19 O19           -1.8559    -4.2122     0.0496 O.2     
  20 H20            1.9744     3.9444    -0.1312 H       
  21 H21            6.8842     3.4968    -0.0176 H       
  22 H22            4.5181    -1.1977     0.2971 H       
  23 H23            6.1851    -0.9886     0.3061 H       
  24 H24            1.9579    -2.6245    -0.3284 H       
@<TRIPOS>BOND
   1    1    2 1
   2    1    3 1
   3    2   13 1
   4    2   16 2
   5    3    4 2
   6    3    7 1
   7    4    5 1
   8    5    6 ar
   9    5    8 ar
  10    6    7 1
  11    6   11 ar
  12    7   20 1
  13    8    9 ar
  14    8   12 1
  15    9   10 ar
  16   10   11 ar
  17   10   21 1
  18   12   22 1
  19   12   23 1
  20   13   14 1
  21   14   15 2
  22   14   17 1
  23   15   16 1
  24   15   24 1
  25   17   18 2
  26   17   19 2

#	End of record

