#	Name: ASD01420044
#	Creating user name:	WinNT
#	Creation time:	15. 06. 2019 19:20

#	Modifying user name:	WinNT
#	Modification time:	15. 06. 2019 19:20

#	Program:	/corina/corina34_cracker 3.40 0067  02.08.2006

@<TRIPOS>MOLECULE
ASD01420044
  78   82    0    0    0
SMALL
NO_CHARGES


@<TRIPOS>ATOM
   1 C1            -0.0144     1.2120     0.0087 C.2     
   2 O2             0.2386     0.1773     0.5956 O.2     
   3 C3             0.7515     2.9862    -1.5995 C.3     
   4 N4             0.9291     1.8047    -0.7496 N.am    
   5 C5             2.3298     1.3915    -0.8820 C.3     
   6 C6             3.0024     2.3491    -1.8329 C.ar    
   7 C7             4.3047     2.4076    -2.2966 C.ar    
   8 C8             4.6819     3.4042    -3.1836 C.ar    
   9 C9             3.7505     4.3424    -3.6048 C.ar    
  10 C10            2.4523     4.2803    -3.1396 C.ar    
  11 C11            2.0771     3.2842    -2.2537 C.ar    
  12 O12            5.9610     3.4622    -3.6390 O.3     
  13 C13            6.2779     4.5161    -4.5505 C.3     
  14 C14            7.7518     4.4193    -4.9495 C.3     
  15 O15            7.9694     3.2101    -5.6792 O.3     
  16 C16            9.3214     3.0212    -6.1014 C.3     
  17 C17           -1.3539     1.8143     0.1217 C.ar    
  18 C18           -2.4985     1.0056     0.0481 C.ar    
  19 C19           -3.7533     1.5796     0.1557 C.ar    
  20 C20           -3.8770     2.9496     0.3352 C.ar    
  21 C21           -2.7431     3.7527     0.4083 C.ar    
  22 C22           -1.4901     3.1932     0.3085 C.ar    
  23 C23           -2.8878     5.2400     0.6035 C.3     
  24 C24           -2.1862     5.6552     1.8982 C.3     
  25 C25           -2.2520     5.9737    -0.5790 C.3     
  26 O26           -5.1091     3.5090     0.4394 O.3     
  27 C27           -6.2309     2.6277     0.3554 C.3     
  28 C28           -7.5046     3.4216     0.4908 C.ar    
  29 C29           -8.1199     3.9384    -0.6340 C.ar    
  30 C30           -9.2882     4.6666    -0.5097 C.ar    
  31 C31           -9.8416     4.8777     0.7393 C.ar    
  32 C32           -9.2268     4.3601     1.8641 C.ar    
  33 C33           -8.0608     3.6282     1.7394 C.ar    
  34 O34           -2.3754    -0.3338    -0.1283 O.3     
  35 C35           -3.5841    -1.0933    -0.1938 C.3     
  36 C36           -3.2521    -2.5500    -0.3910 C.ar    
  37 C37           -3.0677    -3.3714     0.7054 C.ar    
  38 C38           -2.7631    -4.7076     0.5245 C.ar    
  39 C39           -2.6432    -5.2224    -0.7529 C.ar    
  40 C40           -2.8285    -4.4011    -1.8493 C.ar    
  41 C41           -3.1374    -3.0659    -1.6683 C.ar    
  42 H42            0.0003     2.7827    -2.3627 H       
  43 H43            0.4405     3.8355    -0.9911 H       
  44 H44            2.8202     1.4312     0.0907 H       
  45 H45            2.3800     0.3784    -1.2809 H       
  46 H46            5.0280     1.6765    -1.9671 H       
  47 H47            4.0409     5.1203    -4.2954 H       
  48 H48            1.7273     5.0106    -3.4675 H       
  49 H49            5.6541     4.4269    -5.4400 H       
  50 H50            6.0934     5.4780    -4.0722 H       
  51 H51            8.0161     5.2729    -5.5737 H       
  52 H52            8.3717     4.4191    -4.0529 H       
  53 H53            9.6183     3.8458    -6.7495 H       
  54 H54            9.9739     2.9920    -5.2287 H       
  55 H55            9.4036     2.0817    -6.6480 H       
  56 H56           -4.6365     0.9606     0.0996 H       
  57 H57           -0.6123     3.8193     0.3703 H       
  58 H58           -3.9452     5.4972     0.6646 H       
  59 H59           -1.1288     5.3979     1.8370 H       
  60 H60           -2.2909     6.7309     2.0393 H       
  61 H61           -2.6392     5.1324     2.7406 H       
  62 H62           -2.7518     5.6780    -1.5014 H       
  63 H63           -2.3567     7.0495    -0.4379 H       
  64 H64           -1.1945     5.7165    -0.6402 H       
  65 H65           -6.2211     2.1180    -0.6081 H       
  66 H66           -6.1749     1.8910     1.1568 H       
  67 H67           -7.6876     3.7735    -1.6099 H       
  68 H68           -9.7686     5.0710    -1.3885 H       
  69 H69          -10.7540     5.4473     0.8365 H       
  70 H70           -9.6590     4.5253     2.8400 H       
  71 H71           -7.5825     3.2207     2.6178 H       
  72 H72           -4.1414    -0.9702     0.7348 H       
  73 H73           -4.1890    -0.7421    -1.0298 H       
  74 H74           -3.1614    -2.9692     1.7033 H       
  75 H75           -2.6184    -5.3492     1.3810 H       
  76 H76           -2.4045    -6.2662    -0.8942 H       
  77 H77           -2.7345    -4.8033    -2.8472 H       
  78 H78           -3.2858    -2.4251    -2.5249 H       
@<TRIPOS>BOND
   1    1    2 2
   2    1    4 am
   3    1   17 1
   4    3    4 1
   5    3   11 1
   6    3   42 1
   7    3   43 1
   8    4    5 1
   9    5    6 1
  10    5   44 1
  11    5   45 1
  12    6    7 ar
  13    6   11 ar
  14    7    8 ar
  15    7   46 1
  16    8    9 ar
  17    8   12 1
  18    9   10 ar
  19    9   47 1
  20   10   11 ar
  21   10   48 1
  22   12   13 1
  23   13   14 1
  24   13   49 1
  25   13   50 1
  26   14   15 1
  27   14   51 1
  28   14   52 1
  29   15   16 1
  30   16   53 1
  31   16   54 1
  32   16   55 1
  33   17   18 ar
  34   17   22 ar
  35   18   19 ar
  36   18   34 1
  37   19   20 ar
  38   19   56 1
  39   20   21 ar
  40   20   26 1
  41   21   22 ar
  42   21   23 1
  43   22   57 1
  44   23   24 1
  45   23   25 1
  46   23   58 1
  47   24   59 1
  48   24   60 1
  49   24   61 1
  50   25   62 1
  51   25   63 1
  52   25   64 1
  53   26   27 1
  54   27   28 1
  55   27   65 1
  56   27   66 1
  57   28   29 ar
  58   28   33 ar
  59   29   30 ar
  60   29   67 1
  61   30   31 ar
  62   30   68 1
  63   31   32 ar
  64   31   69 1
  65   32   33 ar
  66   32   70 1
  67   33   71 1
  68   34   35 1
  69   35   36 1
  70   35   72 1
  71   35   73 1
  72   36   37 ar
  73   36   41 ar
  74   37   38 ar
  75   37   74 1
  76   38   39 ar
  77   38   75 1
  78   39   40 ar
  79   39   76 1
  80   40   41 ar
  81   40   77 1
  82   41   78 1

#	End of record

