#	Name: ASD03930292
#	Creating user name:	WinNT
#	Creation time:	15. 06. 2019 20:47

#	Modifying user name:	WinNT
#	Modification time:	15. 06. 2019 20:47

#	Program:	/corina/corina34_cracker 3.40 0067  02.08.2006

@<TRIPOS>MOLECULE
ASD03930292
  50   53    0    0    0
SMALL
NO_CHARGES


@<TRIPOS>ATOM
   1 C1             0.2216     1.7117    -0.1424 C.3     
   2 N2             0.2268     0.2432    -0.1829 N.3     
   3 C3             0.5543    -0.2410    -1.5170 C.3     
   4 N4             0.3677    -1.7069    -1.5654 N.am    
   5 S5             1.3828    -2.5701    -0.5565 S.o2    
   6 O6             0.6777    -3.7390    -0.1619 O.2     
   7 O7             2.6607    -2.5941    -1.1775 O.2     
   8 C8             1.5240    -1.5444     0.8788 C.ar    
   9 C9             2.2057    -2.0133     1.9821 C.ar    
  10 C10            2.3398    -1.2178     3.1057 C.ar    
  11 C11            1.7900     0.0508     3.1137 C.ar    
  12 C12            1.9436     0.9266     4.3305 C.3     
  13 C13            3.2217     1.7578     4.2026 C.3     
  14 C14            3.3753     2.6335     5.4194 C.ar    
  15 C15            2.8205     3.9000     5.4295 C.ar    
  16 C16            2.9758     4.7051     6.5436 C.ar    
  17 C17            3.6717     4.2426     7.6406 C.ar    
  18 C18            4.2144     2.9660     7.6544 C.ar    
  19 C19            4.0627     2.1658     6.5178 C.ar    
  20 N20            4.8643     2.4125     8.7483 N.3     
  21 C21            5.7408     1.3080     8.3365 C.3     
  22 C22            5.5639     3.3306     9.6374 C.3     
  23 N23            4.6019     4.3104    10.1847 N.am    
  24 S24            3.8879     5.3000     9.0430 S.o2    
  25 O25            4.8544     6.2763     8.6796 O.2     
  26 O26            2.5896     5.6178     9.5252 O.2     
  27 C27            1.1030     0.5187     2.0152 C.ar    
  28 C28            0.9515    -0.2809     0.8778 C.ar    
  29 H29            1.2463     2.0768    -0.0735 H       
  30 H30           -0.2417     2.0985    -1.0500 H       
  31 H31           -0.3436     2.0491     0.7264 H       
  32 H32           -0.1013     0.2334    -2.2473 H       
  33 H33            1.5917     0.0014    -1.7475 H       
  34 H34           -0.2905    -2.1331    -2.1363 H       
  35 H35            2.6354    -3.0040     1.9690 H       
  36 H36            2.8705    -1.5855     3.9716 H       
  37 H37            1.0839     1.5920     4.4101 H       
  38 H38            2.0037     0.3025     5.2221 H       
  39 H39            4.0814     1.0924     4.1230 H       
  40 H40            3.1615     2.3819     3.3110 H       
  41 H41            2.2696     4.2587     4.5726 H       
  42 H42            2.5514     5.6982     6.5541 H       
  43 H43            4.4915     1.1748     6.4993 H       
  44 H44            6.4067     1.6488     7.5437 H       
  45 H45            6.3321     0.9758     9.1898 H       
  46 H46            5.1340     0.4798     7.9705 H       
  47 H47            6.0174     2.7704    10.4550 H       
  48 H48            6.3404     3.8552     9.0807 H       
  49 H49            4.4007     4.3737    11.1315 H       
  50 H50            0.6772     1.5110     2.0327 H       
@<TRIPOS>BOND
   1    1    2 1
   2    1   29 1
   3    1   30 1
   4    1   31 1
   5    2   28 1
   6    2    3 1
   7    3    4 1
   8    3   32 1
   9    3   33 1
  10    4    5 am
  11    4   34 1
  12    5    6 2
  13    5    7 2
  14    5    8 1
  15    8   28 ar
  16    8    9 ar
  17    9   10 ar
  18    9   35 1
  19   10   11 ar
  20   10   36 1
  21   11   12 1
  22   11   27 ar
  23   12   13 1
  24   12   37 1
  25   12   38 1
  26   13   14 1
  27   13   39 1
  28   13   40 1
  29   14   19 ar
  30   14   15 ar
  31   15   16 ar
  32   15   41 1
  33   16   17 ar
  34   16   42 1
  35   17   24 1
  36   17   18 ar
  37   18   19 ar
  38   18   20 1
  39   19   43 1
  40   20   21 1
  41   20   22 1
  42   21   44 1
  43   21   45 1
  44   21   46 1
  45   22   23 1
  46   22   47 1
  47   22   48 1
  48   23   24 am
  49   23   49 1
  50   24   25 2
  51   24   26 2
  52   27   28 ar
  53   27   50 1

#	End of record

