#	Name: ASD03090271
#	Creating user name:	WinNT
#	Creation time:	15. 06. 2019 20:28

#	Modifying user name:	WinNT
#	Modification time:	15. 06. 2019 20:28

#	Program:	/corina/corina34_cracker 3.40 0067  02.08.2006

@<TRIPOS>MOLECULE
ASD03090271
  51   53    0    0    0
SMALL
NO_CHARGES


@<TRIPOS>ATOM
   1 C1             0.1939     1.0426     0.8778 C.ar    
   2 N2            -0.9197     1.4688     1.4425 N.ar    
   3 C3            -2.0661     0.8416     1.2799 C.ar    
   4 C4            -2.1400    -0.3094     0.4950 C.ar    
   5 C5            -0.9759    -0.7861    -0.1171 C.ar    
   6 C6             0.2025    -0.0872     0.0802 C.ar    
   7 C7            -3.4282    -1.0144     0.3133 C.2     
   8 N8            -6.9343    -1.2502     0.4066 N.pl3   
   9 C9            -7.4344    -0.0696     0.9657 C.ar    
  10 C10           -6.7037     0.6046     1.9353 C.ar    
  11 C11           -7.1996     1.7703     2.4861 C.ar    
  12 C12           -8.4242     2.2664     2.0724 C.ar    
  13 C13           -9.1546     1.5957     1.1056 C.ar    
  14 C14           -8.6600     0.4333     0.5478 C.ar    
  15 N15           -4.6252    -0.5151     0.5481 N.2     
  16 C16           -5.5562    -1.4307     0.2739 C.2     
  17 N17           -4.9677    -2.5290    -0.1403 N.2     
  18 N18           -3.5854    -2.2823    -0.1284 N.pl3   
  19 C19           -2.5237    -3.2164    -0.5112 C.3     
  20 F20           -8.9077     3.4062     2.6131 F       
  21 C21           -2.2816    -3.1231    -2.0191 C.3     
  22 C22           -1.1895    -4.0840    -2.4129 C.2     
  23 N23           -0.8043    -4.1751    -3.7012 N.am    
  24 O24           -0.6572    -4.7753    -1.5704 O.2     
  25 C25            0.2574    -5.1092    -4.0840 C.3     
  26 C26           -1.4472    -3.3401    -4.7188 C.3     
  27 C27            1.4760     1.8025     1.1005 C.3     
  28 C28          -10.4872     2.1382     0.6575 C.3     
  29 F29          -11.0299     1.2948    -0.3179 F       
  30 F30          -11.3558     2.2044     1.7523 F       
  31 F31          -10.3132     3.4189     0.1222 F       
  32 H32           -2.9567     1.2212     1.7586 H       
  33 H33           -0.9969    -1.6741    -0.7313 H       
  34 H34            1.1207    -0.4256    -0.3766 H       
  35 H35           -7.5449    -1.9435     0.1110 H       
  36 H36           -5.7487     0.2176     2.2587 H       
  37 H37           -6.6317     2.2950     3.2401 H       
  38 H38           -9.2297    -0.0892    -0.2064 H       
  39 H39           -1.6068    -2.9619     0.0204 H       
  40 H40           -2.8232    -4.2322    -0.2535 H       
  41 H41           -3.1985    -3.3776    -2.5507 H       
  42 H42           -1.9821    -2.1073    -2.2769 H       
  43 H43           -0.1816    -6.0743    -4.3370 H       
  44 H44            0.7932    -4.7160    -4.9480 H       
  45 H45            0.9505    -5.2323    -3.2518 H       
  46 H46           -0.9044    -2.3995    -4.8130 H       
  47 H47           -1.4386    -3.8620    -5.6756 H       
  48 H48           -2.4771    -3.1373    -4.4248 H       
  49 H49            1.9836     1.4087     1.9811 H       
  50 H50            2.1209     1.6905     0.2289 H       
  51 H51            1.2510     2.8581     1.2526 H       
@<TRIPOS>BOND
   1    1    2 ar
   2    1   27 1
   3    1    6 ar
   4    2    3 ar
   5    3    4 ar
   6    3   32 1
   7    4    5 ar
   8    4    7 1
   9    5    6 ar
  10    5   33 1
  11    6   34 1
  12    7   15 2
  13    7   18 1
  14    8    9 1
  15    8   16 1
  16    8   35 1
  17    9   10 ar
  18    9   14 ar
  19   10   11 ar
  20   10   36 1
  21   11   12 ar
  22   11   37 1
  23   12   13 ar
  24   12   20 1
  25   13   14 ar
  26   13   28 1
  27   14   38 1
  28   15   16 1
  29   16   17 2
  30   17   18 1
  31   18   19 1
  32   19   21 1
  33   19   39 1
  34   19   40 1
  35   21   22 1
  36   21   41 1
  37   21   42 1
  38   22   23 am
  39   22   24 2
  40   23   25 1
  41   23   26 1
  42   25   43 1
  43   25   44 1
  44   25   45 1
  45   26   46 1
  46   26   47 1
  47   26   48 1
  48   27   49 1
  49   27   50 1
  50   27   51 1
  51   28   29 1
  52   28   30 1
  53   28   31 1

#	End of record

