#	Name: ASD01881526
#	Creating user name:	WinNT
#	Creation time:	15. 06. 2019 19:42

#	Modifying user name:	WinNT
#	Modification time:	15. 06. 2019 19:42

#	Program:	/corina/corina34_cracker 3.40 0067  02.08.2006

@<TRIPOS>MOLECULE
ASD01881526
  48   50    0    0    0
SMALL
NO_CHARGES


@<TRIPOS>ATOM
   1 C1            -0.0167     1.3819     0.0096 C.ar    
   2 C2             0.0021    -0.0041     0.0020 C.ar    
   3 N3            -1.2006    -0.7203     0.0092 N.am    
   4 C4            -2.4279    -0.1824     0.0229 C.2     
   5 O5            -3.4145    -1.0859     0.0272 O.3     
   6 C6            -2.8452    -2.4270     0.0154 C.3     
   7 C7            -1.3234    -2.1860    -0.0034 C.3     
   8 O8            -2.6264     1.0164     0.0306 O.2     
   9 C9            -3.2564    -3.1953     1.2730 C.3     
  10 C10            1.2145    -0.6825    -0.0132 C.ar    
  11 C11            2.4054     0.0199    -0.0203 C.ar    
  12 C12            2.3981     1.3995    -0.0129 C.ar    
  13 C13            1.1847     2.0911     0.0020 C.ar    
  14 O14           -4.6662    -3.4274     1.2498 O.3     
  15 C15           -5.1977    -4.1030     2.3024 C.ar    
  16 C16           -6.5597    -4.3631     2.3448 C.ar    
  17 C17           -4.3782    -4.5386     3.3336 C.ar    
  18 C18           -4.9209    -5.2252     4.4025 C.ar    
  19 C19           -6.2796    -5.4782     4.4451 C.ar    
  20 C20           -7.0976    -5.0500     3.4159 C.ar    
  21 C21           -6.8689    -6.2273     5.6124 C.3     
  22 C22           -6.5952    -5.4552     6.9046 C.3     
  23 C23           -8.3792    -6.3724     5.4152 C.3     
  24 C24           -6.2307    -7.6149     5.7025 C.3     
  25 C25            1.1738     3.5231     0.0093 C.1     
  26 N26            1.1652     4.6590     0.0151 N.1     
  27 H27           -0.9582     1.9110     0.0170 H       
  28 H28           -3.1542    -2.9654    -0.8806 H       
  29 H29           -0.8805    -2.6053    -0.9069 H       
  30 H30           -0.8574    -2.6112     0.8855 H       
  31 H31           -2.7314    -4.1501     1.3033 H       
  32 H32           -2.9988    -2.6108     2.1563 H       
  33 H33            1.2268    -1.7625    -0.0191 H       
  34 H34            3.3446    -0.5132    -0.0315 H       
  35 H35            3.3304     1.9446    -0.0181 H       
  36 H36           -7.1991    -4.0286     1.5412 H       
  37 H37           -3.3169    -4.3416     3.3005 H       
  38 H38           -4.2834    -5.5648     5.2053 H       
  39 H39           -8.1585    -5.2486     3.4517 H       
  40 H40           -7.0499    -4.4666     6.8404 H       
  41 H41           -7.0215    -5.9970     7.7489 H       
  42 H42           -5.5192    -5.3518     7.0451 H       
  43 H43           -8.5742    -6.9225     4.4946 H       
  44 H44           -8.8055    -6.9143     6.2594 H       
  45 H45           -8.8339    -5.3838     5.3510 H       
  46 H46           -5.1548    -7.5116     5.8430 H       
  47 H47           -6.6570    -8.1568     6.5468 H       
  48 H48           -6.4258    -8.1650     4.7819 H       
@<TRIPOS>BOND
   1    1    2 ar
   2    1   13 ar
   3    1   27 1
   4    2    3 1
   5    2   10 ar
   6    3    4 am
   7    3    7 1
   8    4    5 1
   9    4    8 2
  10    5    6 1
  11    6    7 1
  12    6    9 1
  13    6   28 1
  14    7   29 1
  15    7   30 1
  16    9   14 1
  17    9   31 1
  18    9   32 1
  19   10   11 ar
  20   10   33 1
  21   11   12 ar
  22   11   34 1
  23   12   13 ar
  24   12   35 1
  25   13   25 1
  26   14   15 1
  27   15   16 ar
  28   15   17 ar
  29   16   20 ar
  30   16   36 1
  31   17   18 ar
  32   17   37 1
  33   18   19 ar
  34   18   38 1
  35   19   20 ar
  36   19   21 1
  37   20   39 1
  38   21   22 1
  39   21   23 1
  40   21   24 1
  41   22   40 1
  42   22   41 1
  43   22   42 1
  44   23   43 1
  45   23   44 1
  46   23   45 1
  47   24   46 1
  48   24   47 1
  49   24   48 1
  50   25   26 3

#	End of record

