#	Name: ASD03740063
#	Creating user name:	WinNT
#	Creation time:	15. 06. 2019 20:46

#	Modifying user name:	WinNT
#	Modification time:	15. 06. 2019 20:46

#	Program:	/corina/corina34_cracker 3.40 0067  02.08.2006

@<TRIPOS>MOLECULE
ASD03740063
  53   56    0    0    0
SMALL
NO_CHARGES


@<TRIPOS>ATOM
   1 C1            -0.0168     1.3849     0.0097 C.ar    
   2 C2             0.0021    -0.0041     0.0020 C.ar    
   3 C3             1.1850    -0.6877    -0.0125 C.ar    
   4 C4             2.3894     0.0113    -0.0203 C.ar    
   5 C5             2.3718     1.4195    -0.0131 C.ar    
   6 C6             1.1486     2.0963     0.0023 C.ar    
   7 N7             3.7063    -0.3680    -0.0346 N.pl3   
   8 N8             4.5133     0.7743    -0.0364 N.2     
   9 C9             3.7704     1.8474    -0.0241 C.2     
  10 O10            4.2163     3.1315    -0.0222 O.3     
  11 C11            4.1915    -1.7503    -0.0454 C.3     
  12 C12            4.3443    -2.2179    -1.4698 C.ar    
  13 C13            5.6318     3.3268    -0.0344 C.3     
  14 C14            5.9400     4.8254    -0.0302 C.3     
  15 N15            5.4770     5.4170     1.2321 N.3     
  16 C16            5.5456    -2.0349    -2.1312 C.ar    
  17 C17            5.6944    -2.4609    -3.4395 C.ar    
  18 C18            4.6445    -3.0719    -4.0927 C.ar    
  19 C19            3.4293    -3.2602    -3.4310 C.ar    
  20 C20            3.2877    -2.8327    -2.1095 C.ar    
  21 C21            5.9642     6.8010     1.3771 C.3     
  22 C22            4.7272     7.7034     1.5693 C.3     
  23 C23            3.6510     6.7149     2.0903 C.3     
  24 C24            4.0002     5.4281     1.3019 C.3     
  25 C25            2.3004    -3.9139    -4.1243 C.2     
  26 O26            1.2446    -4.0763    -3.5460 O.2     
  27 O27            2.4419    -4.3297    -5.3977 O.3     
  28 C28            1.2911    -4.9637    -6.0159 C.3     
  29 H29           -0.9621     1.9071     0.0170 H       
  30 H30           -0.9296    -0.5502     0.0080 H       
  31 H31            1.1859    -1.7677    -0.0176 H       
  32 H32            1.1256     3.1760     0.0077 H       
  33 H33            5.1565    -1.8005     0.4590 H       
  34 H34            3.4771    -2.3902     0.4724 H       
  35 H35            6.0702     2.8632     0.8494 H       
  36 H36            6.0537     2.8716    -0.9305 H       
  37 H37            7.0151     4.9756    -0.1291 H       
  38 H38            5.4280     5.3039    -0.8651 H       
  39 H39            6.3709    -1.5570    -1.6244 H       
  40 H40            6.6346    -2.3143    -3.9502 H       
  41 H41            4.7618    -3.4035    -5.1138 H       
  42 H42            2.3508    -2.9756    -1.5918 H       
  43 H43            6.6162     6.8754     2.2474 H       
  44 H44            6.5052     7.0997     0.4792 H       
  45 H45            4.9274     8.4797     2.3079 H       
  46 H46            4.4197     8.1430     0.6204 H       
  47 H47            3.7544     6.5554     3.1636 H       
  48 H48            2.6483     7.0639     1.8438 H       
  49 H49            3.5733     5.4694     0.2998 H       
  50 H50            3.6388     4.5476     1.8332 H       
  51 H51            0.4541    -4.2655    -6.0270 H       
  52 H52            1.5392    -5.2498    -7.0379 H       
  53 H53            1.0160    -5.8516    -5.4466 H       
@<TRIPOS>BOND
   1    1    2 ar
   2    1    6 ar
   3    1   29 1
   4    2    3 ar
   5    2   30 1
   6    3    4 ar
   7    3   31 1
   8    4    5 ar
   9    4    7 1
  10    5    6 ar
  11    5    9 1
  12    6   32 1
  13    7    8 1
  14    7   11 1
  15    8    9 2
  16    9   10 1
  17   10   13 1
  18   11   12 1
  19   11   33 1
  20   11   34 1
  21   12   16 ar
  22   12   20 ar
  23   13   14 1
  24   13   35 1
  25   13   36 1
  26   14   15 1
  27   14   37 1
  28   14   38 1
  29   15   21 1
  30   15   24 1
  31   16   17 ar
  32   16   39 1
  33   17   18 ar
  34   17   40 1
  35   18   19 ar
  36   18   41 1
  37   19   20 ar
  38   19   25 1
  39   20   42 1
  40   21   22 1
  41   21   43 1
  42   21   44 1
  43   22   23 1
  44   22   45 1
  45   22   46 1
  46   23   24 1
  47   23   47 1
  48   23   48 1
  49   24   49 1
  50   24   50 1
  51   25   26 2
  52   25   27 1
  53   27   28 1
  54   28   51 1
  55   28   52 1
  56   28   53 1

#	End of record

