#	Name: ASD01152129
#	Creating user name:	WinNT
#	Creation time:	15. 06. 2019 19:05

#	Modifying user name:	WinNT
#	Modification time:	15. 06. 2019 19:05

#	Program:	/corina/corina34_cracker 3.40 0067  02.08.2006

@<TRIPOS>MOLECULE
ASD01152129
  80   83    0    0    0
SMALL
NO_CHARGES


@<TRIPOS>ATOM
   1 N1            -0.0187     1.3532     0.0025 N.pl3   
   2 C2            -0.0039     0.0022     0.1542 C.2     
   3 N3            -1.2384    -0.4540     0.1187 N.2     
   4 C4            -2.0952     0.5563    -0.0540 C.2     
   5 C5            -1.3571     1.7307    -0.1271 C.2     
   6 N6            -3.4792     0.4514    -0.1399 N.am    
   7 N7             1.1244    -0.7678     0.3187 N.3     
   8 C8             1.1363    -1.4088     1.6404 C.3     
   9 C9             1.2406    -1.7668    -0.7520 C.3     
  10 C10           -1.8565     3.0368    -0.3056 C.2     
  11 O11           -1.0055     4.0841    -0.3561 O.3     
  12 O12           -3.0554     3.2206    -0.4142 O.2     
  13 C13           -1.5809     5.3793    -0.5391 C.3     
  14 C14           -2.5359     5.6811     0.6175 C.3     
  15 C15           -0.4701     6.4310    -0.5708 C.3     
  16 C16           -2.3527     5.4126    -1.8597 C.3     
  17 C17            1.0943     2.2038    -0.0145 C.ar    
  18 C18            1.9963     2.1484    -1.0687 C.ar    
  19 C19            3.0923     2.9886    -1.0828 C.ar    
  20 C20            3.2923     3.8840    -0.0482 C.ar    
  21 C21            2.3961     3.9412     1.0034 C.ar    
  22 C22            1.2948     3.1079     1.0201 C.ar    
  23 C23           -4.0706    -0.7560    -0.0469 C.2     
  24 O24           -3.3958    -1.7512     0.1117 O.2     
  25 C25           -5.5704    -0.8696    -0.1400 C.3     
  26 C26           -6.2143    -0.0551     0.9838 C.3     
  27 N27           -5.9627    -2.2752    -0.0109 N.am    
  28 C28           -7.7122    -0.0679     0.8187 C.ar    
  29 C29           -8.4654    -1.0592     1.4193 C.ar    
  30 C30           -9.8394    -1.0709     1.2678 C.ar    
  31 C31          -10.4602    -0.0910     0.5161 C.ar    
  32 C32           -9.7071     0.9009    -0.0838 C.ar    
  33 C33           -8.3335     0.9151     0.0712 C.ar    
  34 S34           -7.2557    -2.8560    -0.8670 S.o2    
  35 C35           -6.8357    -2.7600    -2.5755 C.ar    
  36 O36           -7.3549    -4.2389    -0.5553 O.2     
  37 O37           -8.3185    -1.9352    -0.6628 O.2     
  38 C38           -6.2093    -3.8258    -3.1942 C.ar    
  39 C39           -5.8797    -3.7504    -4.5346 C.ar    
  40 C40           -6.1768    -2.6095    -5.2563 C.ar    
  41 C41           -6.8040    -1.5441    -4.6379 C.ar    
  42 C42           -7.1375    -1.6212    -3.2985 C.ar    
  43 C43           -5.8166    -2.5270    -6.7173 C.3     
  44 H44           -4.0189     1.2474    -0.2668 H       
  45 H45            0.2591    -2.0478     1.7421 H       
  46 H46            2.0387    -2.0112     1.7439 H       
  47 H47            1.1197    -0.6429     2.4158 H       
  48 H48            1.2122    -1.2668    -1.7201 H       
  49 H49            2.1838    -2.3032    -0.6476 H       
  50 H50            0.4122    -2.4717    -0.6827 H       
  51 H51           -1.9861     5.6573     1.5584 H       
  52 H52           -2.9748     6.6690     0.4780 H       
  53 H53           -3.3273     4.9319     0.6402 H       
  54 H54            0.2103     6.2160    -1.3948 H       
  55 H55           -0.9089     7.4189    -0.7104 H       
  56 H56            0.0798     6.4072     0.3700 H       
  57 H57           -3.1440     4.6634    -1.8371 H       
  58 H58           -2.7915     6.4006    -1.9992 H       
  59 H59           -1.6723     5.1977    -2.6837 H       
  60 H60            1.8410     1.4488    -1.8767 H       
  61 H61            3.7942     2.9460    -1.9026 H       
  62 H62            4.1503     4.5398    -0.0613 H       
  63 H63            2.5551     4.6414     1.8102 H       
  64 H64            0.5950     3.1533     1.8415 H       
  65 H65           -5.9047    -0.4862    -1.1041 H       
  66 H66           -5.9512    -0.4931     1.9466 H       
  67 H67           -5.8528     0.9722     0.9410 H       
  68 H68           -5.4650    -2.8657     0.5761 H       
  69 H69           -7.9803    -1.8249     2.0066 H       
  70 H70          -10.4277    -1.8459     1.7365 H       
  71 H71          -11.5336    -0.1005     0.3971 H       
  72 H72          -10.1921     1.6664    -0.6715 H       
  73 H73           -7.7452     1.6901    -0.3974 H       
  74 H74           -5.9772    -4.7171    -2.6303 H       
  75 H75           -5.3897    -4.5828    -5.0178 H       
  76 H76           -7.0358    -0.6526    -5.2017 H       
  77 H77           -7.6275    -0.7888    -2.8153 H       
  78 H78           -6.6453    -2.9025    -7.3176 H       
  79 H79           -5.6157    -1.4894    -6.9840 H       
  80 H80           -4.9283    -3.1294    -6.9071 H       
@<TRIPOS>BOND
   1    1    2 1
   2    1   17 1
   3    1    5 1
   4    2    3 2
   5    2    7 1
   6    3    4 1
   7    4    5 2
   8    4    6 1
   9    5   10 1
  10    6   23 am
  11    6   44 1
  12    7    8 1
  13    7    9 1
  14    8   45 1
  15    8   46 1
  16    8   47 1
  17    9   48 1
  18    9   49 1
  19    9   50 1
  20   10   11 1
  21   10   12 2
  22   11   13 1
  23   13   14 1
  24   13   15 1
  25   13   16 1
  26   14   51 1
  27   14   52 1
  28   14   53 1
  29   15   54 1
  30   15   55 1
  31   15   56 1
  32   16   57 1
  33   16   58 1
  34   16   59 1
  35   17   18 ar
  36   17   22 ar
  37   18   19 ar
  38   18   60 1
  39   19   20 ar
  40   19   61 1
  41   20   21 ar
  42   20   62 1
  43   21   22 ar
  44   21   63 1
  45   22   64 1
  46   23   24 2
  47   23   25 1
  48   25   26 1
  49   25   27 1
  50   25   65 1
  51   26   28 1
  52   26   66 1
  53   26   67 1
  54   27   34 am
  55   27   68 1
  56   28   29 ar
  57   28   33 ar
  58   29   30 ar
  59   29   69 1
  60   30   31 ar
  61   30   70 1
  62   31   32 ar
  63   31   71 1
  64   32   33 ar
  65   32   72 1
  66   33   73 1
  67   34   35 1
  68   34   36 2
  69   34   37 2
  70   35   38 ar
  71   35   42 ar
  72   38   39 ar
  73   38   74 1
  74   39   40 ar
  75   39   75 1
  76   40   41 ar
  77   40   43 1
  78   41   42 ar
  79   41   76 1
  80   42   77 1
  81   43   78 1
  82   43   79 1
  83   43   80 1

#	End of record

