#	Name: ASD01901086
#	Creating user name:	WinNT
#	Creation time:	15. 06. 2019 19:53

#	Modifying user name:	WinNT
#	Modification time:	15. 06. 2019 19:53

#	Program:	/corina/corina34_cracker 3.40 0067  02.08.2006

@<TRIPOS>MOLECULE
ASD01901086
  36   38    0    0    0
SMALL
NO_CHARGES


@<TRIPOS>ATOM
   1 C1             0.0803     1.4423    -0.8060 C.2     
   2 C2             0.1129    -0.0637    -0.7631 C.3     
   3 C3             2.5286     1.5527    -0.3690 C.ar    
   4 C4             1.3154     2.2092    -0.6031 C.ar    
   5 C5             1.2972     3.6146    -0.6414 C.ar    
   6 C6             2.4723     4.2874    -0.4473 C.ar    
   7 C7             3.6442     3.5670    -0.2191 C.ar    
   8 N8             3.6355     2.2406    -0.1880 N.ar    
   9 N9             4.8336     4.2453    -0.0226 N.pl3   
  10 C10            4.8695     5.7062    -0.1262 C.3     
  11 C11            6.0393     6.4332     0.5400 C.3     
  12 C12            5.9734     6.3267    -0.9849 C.3     
  13 O13           -1.2026    -0.5752    -0.9868 O.3     
  14 C14           -1.3487    -1.9264    -0.9797 C.ar    
  15 C15           -2.5991    -2.4918    -1.1904 C.ar    
  16 C16           -2.7447    -3.8660    -1.1827 C.ar    
  17 C17           -1.6461    -4.6774    -0.9653 C.ar    
  18 C18           -0.4003    -4.1165    -0.7549 C.ar    
  19 C19           -0.2481    -2.7430    -0.7678 C.ar    
  20 Br20          -4.1016    -1.3825    -1.4870 Br      
  21 O21           -0.9656     2.0207    -1.0132 O.2     
  22 H22            0.7836    -0.4349    -1.5380 H       
  23 H23            0.4690    -0.3918     0.2135 H       
  24 H24            2.5560     0.4736    -0.3325 H       
  25 H25            0.3768     4.1506    -0.8203 H       
  26 H26            2.4923     5.3670    -0.4711 H       
  27 H27            5.6440     3.7537     0.1837 H       
  28 H28            3.8988     6.2020    -0.1185 H       
  29 H29            5.8384     7.4074     0.9856 H       
  30 H30            6.7823     5.8245     1.0554 H       
  31 H31            6.6730     5.6480    -1.4727 H       
  32 H32            5.7290     7.2309    -1.5424 H       
  33 H33           -3.7171    -4.3066    -1.3461 H       
  34 H34           -1.7618    -5.7511    -0.9596 H       
  35 H35            0.4559    -4.7525    -0.5851 H       
  36 H36            0.7265    -2.3058    -0.6085 H       
@<TRIPOS>BOND
   1    1    2 1
   2    1    4 1
   3    1   21 2
   4    2   13 1
   5    2   22 1
   6    2   23 1
   7    3    4 ar
   8    3    8 ar
   9    3   24 1
  10    4    5 ar
  11    5    6 ar
  12    5   25 1
  13    6    7 ar
  14    6   26 1
  15    7    8 ar
  16    7    9 1
  17    9   10 1
  18    9   27 1
  19   10   11 1
  20   10   12 1
  21   10   28 1
  22   11   12 1
  23   11   29 1
  24   11   30 1
  25   12   31 1
  26   12   32 1
  27   13   14 1
  28   14   15 ar
  29   14   19 ar
  30   15   16 ar
  31   15   20 1
  32   16   17 ar
  33   16   33 1
  34   17   18 ar
  35   17   34 1
  36   18   19 ar
  37   18   35 1
  38   19   36 1

#	End of record

