#	Name: ASD03331622
#	Creating user name:	WinNT
#	Creation time:	15. 06. 2019 20:39

#	Modifying user name:	WinNT
#	Modification time:	15. 06. 2019 20:39

#	Program:	/corina/corina34_cracker 3.40 0067  02.08.2006

@<TRIPOS>MOLECULE
ASD03331622
  53   57    0    0    0
SMALL
NO_CHARGES


@<TRIPOS>ATOM
   1 C1            -0.0189     1.5418     0.0105 C.3     
   2 C2             0.0021    -0.0041     0.0020 C.3     
   3 C3             1.3509    -0.3775    -0.6474 C.3     
   4 C4             2.0223     0.9768    -0.9723 C.3     
   5 N5             1.4175     1.9268    -0.0011 N.3     
   6 C6             1.5625     1.4049    -2.3751 C.3     
   7 C7             0.0420     1.2482    -2.4677 C.3     
   8 C8            -0.6271     2.0111    -1.3208 C.3     
   9 C9            -0.4395     1.7999    -3.7849 C.ar    
  10 C10           -1.1004     0.9779    -4.6784 C.ar    
  11 C11           -0.2252     3.1293    -4.0972 C.ar    
  12 C12           -0.6668     3.6354    -5.3054 C.ar    
  13 C13           -1.3224     2.8119    -6.2015 C.ar    
  14 C14           -1.5420     1.4839    -5.8866 C.ar    
  15 C15           -1.8043     3.3637    -7.5184 C.3     
  16 C16            2.0155     1.7695     1.3314 C.3     
  17 C17            1.9368     2.8455    -2.6112 C.2     
  18 C18            2.7435     3.3206    -3.5869 C.2     
  19 C19            2.7619     4.7256    -3.3625 C.2     
  20 N20            1.9971     4.9376    -2.3203 N.2     
  21 O21            1.5299     3.9054    -1.8981 O.3     
  22 C22            3.4991     5.7451    -4.1499 C.ar    
  23 C23            3.4156     7.0917    -3.8020 C.ar    
  24 C24            4.2816     5.3579    -5.2358 C.ar    
  25 C25            4.9656     6.3093    -5.9646 C.ar    
  26 C26            4.8756     7.6467    -5.6180 C.ar    
  27 C27            4.1032     8.0358    -4.5369 C.ar    
  28 Cl28           5.7388     8.8390    -6.5383 Cl      
  29 H29           -0.5462     1.9421     0.8764 H       
  30 H30           -0.0483    -0.3897     1.0203 H       
  31 H31           -0.8253    -0.3914    -0.5926 H       
  32 H32            1.9637    -0.9467     0.0516 H       
  33 H33            1.1867    -0.9484    -1.5613 H       
  34 H34            3.1077     0.9306    -0.8829 H       
  35 H35            2.0408     0.7742    -3.1244 H       
  36 H36           -0.2184     0.1920    -2.4001 H       
  37 H37           -1.6983     1.8093    -1.3241 H       
  38 H38           -0.4549     3.0803    -1.4441 H       
  39 H39           -1.2715    -0.0598    -4.4326 H       
  40 H40            0.2870     3.7727    -3.3971 H       
  41 H41           -0.5000     4.6742    -5.5491 H       
  42 H42           -2.0542     0.8405    -6.5867 H       
  43 H43           -1.0210     3.2510    -8.2680 H       
  44 H44           -2.6932     2.8193    -7.8370 H       
  45 H45           -2.0472     4.4200    -7.4027 H       
  46 H46            1.9332     0.7291     1.6460 H       
  47 H47            3.0666     2.0557     1.2940 H       
  48 H48            1.4905     2.4069     2.0428 H       
  49 H49            3.2555     2.7631    -4.3572 H       
  50 H50            2.8133     7.3961    -2.9588 H       
  51 H51            4.3530     4.3148    -5.5065 H       
  52 H52            5.5723     6.0102    -6.8065 H       
  53 H53            4.0358     9.0802    -4.2705 H       
@<TRIPOS>BOND
   1    1    2 1
   2    1    5 1
   3    1    8 1
   4    1   29 1
   5    2    3 1
   6    2   30 1
   7    2   31 1
   8    3    4 1
   9    3   32 1
  10    3   33 1
  11    4    5 1
  12    4    6 1
  13    4   34 1
  14    5   16 1
  15    6    7 1
  16    6   17 1
  17    6   35 1
  18    7    9 1
  19    7    8 1
  20    7   36 1
  21    8   37 1
  22    8   38 1
  23    9   10 ar
  24    9   11 ar
  25   10   14 ar
  26   10   39 1
  27   11   12 ar
  28   11   40 1
  29   12   13 ar
  30   12   41 1
  31   13   14 ar
  32   13   15 1
  33   14   42 1
  34   15   43 1
  35   15   44 1
  36   15   45 1
  37   16   46 1
  38   16   47 1
  39   16   48 1
  40   17   18 2
  41   17   21 1
  42   18   19 1
  43   18   49 1
  44   19   20 2
  45   19   22 1
  46   20   21 1
  47   22   23 ar
  48   22   24 ar
  49   23   27 ar
  50   23   50 1
  51   24   25 ar
  52   24   51 1
  53   25   26 ar
  54   25   52 1
  55   26   27 ar
  56   26   28 1
  57   27   53 1

#	End of record

