#	Name: ASD03330692
#	Creating user name:	WinNT
#	Creation time:	15. 06. 2019 20:37

#	Modifying user name:	WinNT
#	Modification time:	15. 06. 2019 20:37

#	Program:	/corina/corina34_cracker 3.40 0067  02.08.2006

@<TRIPOS>MOLECULE
ASD03330692
  67   69    0    0    0
SMALL
NO_CHARGES


@<TRIPOS>ATOM
   1 C1            -0.4187     1.7567    -0.6438 C.2     
   2 N2            -0.4904     0.4479    -0.9818 N.pl3   
   3 C3             0.9023     2.0866    -0.5951 C.2     
   4 N4             1.6142     0.9833    -0.9126 N.2     
   5 C5             0.7846    -0.0056    -1.1500 C.2     
   6 C6             1.1682    -1.3817    -1.5350 C.ar    
   7 C7             1.4555     3.4100    -0.2570 C.2     
   8 O8             0.7079     4.3308     0.0122 O.2     
   9 C9             3.3396     4.9155     0.0899 C.3     
  10 N10            2.7897     3.5999    -0.2462 N.am    
  11 C11            3.4563     5.0464     1.6098 C.3     
  12 C12            4.3259     3.9114     2.1542 C.3     
  13 C13            4.0966     6.3916     1.9582 C.3     
  14 C14            4.7037     5.0639    -0.5332 C.2     
  15 N15            5.2459     6.2885    -0.6845 N.am    
  16 O16            5.3136     4.0814    -0.8986 O.2     
  17 C17           -1.7304    -0.3199    -1.1252 C.3     
  18 C18           -2.8619     0.6362    -1.5137 C.3     
  19 C19           -3.5034     1.2131    -0.2569 C.3     
  20 N20           -2.5371     1.9943     0.5193 N.4     
  21 C21           -1.5917     2.6665    -0.3851 C.3     
  22 C22            2.4387    -1.6359    -2.0524 C.ar    
  23 C23            0.2630    -2.4315    -1.3769 C.ar    
  24 C24            0.6269    -3.7125    -1.7379 C.ar    
  25 C25            1.8864    -3.9572    -2.2552 C.ar    
  26 C26            2.7904    -2.9214    -2.4095 C.ar    
  27 C27            6.5251     6.4422    -1.3819 C.3     
  28 C28            2.0629     4.9671     2.2369 C.3     
  29 C29            6.9132     7.9218    -1.4151 C.3     
  30 C30           -3.2512     3.0019     1.3147 C.3     
  31 C31           -1.7979     1.0995     1.4199 C.3     
  32 H32            2.6790     5.6938    -0.2922 H       
  33 H33            3.3859     2.8655    -0.4609 H       
  34 H34            5.3185     3.9679     1.7074 H       
  35 H35            4.4090     4.0047     3.2370 H       
  36 H36            3.8697     2.9531     1.9060 H       
  37 H37            3.4795     7.2001     1.5661 H       
  38 H38            4.1751     6.4870     3.0412 H       
  39 H39            5.0911     6.4461     1.5155 H       
  40 H40            4.7891     7.0681    -0.3316 H       
  41 H41           -1.6056    -1.0733    -1.9029 H       
  42 H42           -1.9709    -0.8051    -0.1792 H       
  43 H43           -2.4588     1.4474    -2.1200 H       
  44 H44           -3.6132     0.0942    -2.0881 H       
  45 H45           -4.3353     1.8565    -0.5434 H       
  46 H46           -3.8801     0.3966     0.3592 H       
  47 H47           -1.2413     3.5900     0.0758 H       
  48 H48           -2.0896     2.8954    -1.3273 H       
  49 H49            3.1453    -0.8281    -2.1733 H       
  50 H50           -0.7203    -2.2419    -0.9725 H       
  51 H51           -0.0729    -4.5260    -1.6160 H       
  52 H52            2.1667    -4.9618    -2.5356 H       
  53 H53            3.7721    -3.1187    -2.8143 H       
  54 H54            7.2950     5.8763    -0.8575 H       
  55 H55            6.4303     6.0685    -2.4014 H       
  56 H56            1.6068     4.0088     1.9887 H       
  57 H57            2.1460     5.0604     3.3197 H       
  58 H58            1.4434     5.7757     1.8491 H       
  59 H59            7.8650     8.0362    -1.9340 H       
  60 H60            6.1433     8.4877    -1.9394 H       
  61 H61            7.0080     8.2955    -0.3956 H       
  62 H62           -3.9455     2.5047     1.9921 H       
  63 H63           -2.5335     3.5840     1.8928 H       
  64 H64           -3.8046     3.6646     0.6493 H       
  65 H65           -1.2706     0.3477     0.8327 H       
  66 H66           -1.0785     1.6793     1.9981 H       
  67 H67           -2.4962     0.6077     2.0970 H       
@<TRIPOS>BOND
   1    1    2 1
   2    1    3 2
   3    1   21 1
   4    2   17 1
   5    2    5 1
   6    3    4 1
   7    3    7 1
   8    4    5 2
   9    5    6 1
  10    6   22 ar
  11    6   23 ar
  12    7    8 2
  13    7   10 am
  14    9   10 1
  15    9   11 1
  16    9   14 1
  17    9   32 1
  18   10   33 1
  19   11   12 1
  20   11   13 1
  21   11   28 1
  22   12   34 1
  23   12   35 1
  24   12   36 1
  25   13   37 1
  26   13   38 1
  27   13   39 1
  28   14   15 am
  29   14   16 2
  30   15   27 1
  31   15   40 1
  32   17   18 1
  33   17   41 1
  34   17   42 1
  35   18   19 1
  36   18   43 1
  37   18   44 1
  38   19   20 1
  39   19   45 1
  40   19   46 1
  41   20   21 1
  42   20   30 1
  43   20   31 1
  44   21   47 1
  45   21   48 1
  46   22   26 ar
  47   22   49 1
  48   23   24 ar
  49   23   50 1
  50   24   25 ar
  51   24   51 1
  52   25   26 ar
  53   25   52 1
  54   26   53 1
  55   27   29 1
  56   27   54 1
  57   27   55 1
  58   28   56 1
  59   28   57 1
  60   28   58 1
  61   29   59 1
  62   29   60 1
  63   29   61 1
  64   30   62 1
  65   30   63 1
  66   30   64 1
  67   31   65 1
  68   31   66 1
  69   31   67 1

#	End of record

