#	Name: ASD03240206
#	Creating user name:	WinNT
#	Creation time:	15. 06. 2019 20:34

#	Modifying user name:	WinNT
#	Modification time:	15. 06. 2019 20:34

#	Program:	/corina/corina34_cracker 3.40 0067  02.08.2006

@<TRIPOS>MOLECULE
ASD03240206
  31   33    0    0    0
SMALL
NO_CHARGES


@<TRIPOS>ATOM
   1 C1            -0.0174     1.4003    -0.0300 C.ar    
   2 C2             0.0015    -0.0036    -0.0505 C.ar    
   3 N3            -1.1390    -0.6810    -0.0351 N.ar    
   4 C4            -2.2986    -0.0570    -0.0061 C.ar    
   5 N5            -2.3636     1.2592     0.0075 N.ar    
   6 C6            -1.2718     2.0027     0.0011 C.ar    
   7 C7             1.3318     1.9958    -0.0397 C.3     
   8 C8             2.3786     1.0062     0.5018 C.3     
   9 S9             1.6870    -0.5621    -0.1014 S.3     
  10 C10            1.5990     3.3802     0.4717 C.3     
  11 C11            2.9829     3.8072    -0.0528 C.3     
  12 C12            4.0571     2.7931     0.3291 C.3     
  13 C13            3.7020     1.3783    -0.1618 C.3     
  14 *14            5.4148     3.2263    -0.3052 Du      
  15 *15           -3.6174    -0.8901     0.0120 Du      
  16 *16           -1.3886     3.5582     0.0184 Du      
  17 C17           -1.5053     5.1137     0.0356 C.3     
  18 C18           -0.1262     5.7211     0.0242 C.2     
  19 *19            0.5519     6.1419     1.3647 Du      
  20 O20            0.4540     5.8822    -1.0225 O.2     
  21 H21            1.5828     2.0637    -1.0982 H       
  22 H22            2.4426     1.0306     1.5896 H       
  23 H23            0.8356     4.0651     0.1025 H       
  24 H24            1.6005     3.3785     1.5616 H       
  25 H25            2.9424     3.8924    -1.1387 H       
  26 H26            3.2414     4.7776     0.3710 H       
  27 H27            4.1617     2.7773     1.4140 H       
  28 H28            4.4793     0.6742     0.1349 H       
  29 H29            3.5894     1.3767    -1.2460 H       
  30 H30           -2.0562     5.4465    -0.8441 H       
  31 H31           -2.0335     5.4285     0.9357 H       
@<TRIPOS>BOND
   1    1    2 ar
   2    1    7 1
   3    1    6 ar
   4    2    3 ar
   5    2    9 1
   6    3    4 ar
   7    4    5 ar
   8    4   15 1
   9    5    6 ar
  10    6   16 1
  11    7    8 1
  12    7   10 1
  13    7   21 1
  14    8    9 1
  15    8   13 1
  16    8   22 1
  17   10   11 1
  18   10   23 1
  19   10   24 1
  20   11   12 1
  21   11   25 1
  22   11   26 1
  23   12   13 1
  24   12   14 1
  25   12   27 1
  26   13   28 1
  27   13   29 1
  28   16   17 1
  29   17   18 1
  30   17   30 1
  31   17   31 1
  32   18   19 1
  33   18   20 2

#	End of record

