#	Name: ASD01917419
#	Creating user name:	WinNT
#	Creation time:	15. 06. 2019 20:09

#	Modifying user name:	WinNT
#	Modification time:	15. 06. 2019 20:09

#	Program:	/corina/corina34_cracker 3.40 0067  02.08.2006

@<TRIPOS>MOLECULE
ASD01917419
  30   31    0    0    0
SMALL
NO_CHARGES


@<TRIPOS>ATOM
   1 C1            -0.0188     1.5345     0.0105 C.3     
   2 C2             0.0021    -0.0041     0.0020 C.3     
   3 C3             1.0346    -0.4943     1.0190 C.3     
   4 C4             0.7319     0.0808     2.4040 C.3     
   5 C5             0.6797     1.6157     2.3091 C.3     
   6 C6             1.8973     2.0694     1.4711 C.3     
   7 C7             1.4500     2.0174    -0.0010 C.3     
   8 C8            -0.5348     1.9653     1.4089 C.3     
   9 C9            -0.8269     2.1076    -1.1251 C.2     
  10 O10           -0.3038     2.8442    -1.9274 O.2     
  11 O11           -2.1279     1.7997    -1.2453 O.3     
  12 N12            0.6292     2.2601     3.6282 N.3     
  13 C13           -2.8439     2.3879    -2.3632 C.3     
  14 H14           -0.9836    -0.3836     0.2712 H       
  15 H15            0.2722    -0.3597    -0.9923 H       
  16 H16            1.0056    -1.5829     1.0662 H       
  17 H17            2.0288    -0.1759     0.7056 H       
  18 H18           -0.2295    -0.2959     2.7531 H       
  19 H19            1.5160    -0.2150     3.1010 H       
  20 H20            2.1797     3.0869     1.7411 H       
  21 H21            2.7360     1.3921     1.6319 H       
  22 H22            2.0710     1.3148    -0.5566 H       
  23 H23            1.5146     3.0097    -0.4474 H       
  24 H24           -0.7460     3.0343     1.4353 H       
  25 H25           -1.4134     1.3877     1.6963 H       
  26 H26            1.4369     2.0154     4.1813 H       
  27 H27            0.5423     3.2613     3.5385 H       
  28 H28           -2.8059     3.4746    -2.2877 H       
  29 H29           -2.3806     2.0722    -3.2980 H       
  30 H30           -3.8827     2.0584    -2.3431 H       
@<TRIPOS>BOND
   1    1    2 1
   2    1    7 1
   3    1    8 1
   4    1    9 1
   5    2    3 1
   6    2   14 1
   7    2   15 1
   8    3    4 1
   9    3   16 1
  10    3   17 1
  11    4    5 1
  12    4   18 1
  13    4   19 1
  14    5    6 1
  15    5    8 1
  16    5   12 1
  17    6    7 1
  18    6   20 1
  19    6   21 1
  20    7   22 1
  21    7   23 1
  22    8   24 1
  23    8   25 1
  24    9   10 2
  25    9   11 1
  26   11   13 1
  27   12   26 1
  28   12   27 1
  29   13   28 1
  30   13   29 1
  31   13   30 1

#	End of record

