#	Name: ASD01420350
#	Creating user name:	WinNT
#	Creation time:	15. 06. 2019 19:20

#	Modifying user name:	WinNT
#	Modification time:	15. 06. 2019 19:20

#	Program:	/corina/corina34_cracker 3.40 0067  02.08.2006

@<TRIPOS>MOLECULE
ASD01420350
  41   41    0    0    0
SMALL
NO_CHARGES


@<TRIPOS>ATOM
   1 N1            -0.0178     1.4642     0.0101 N.3     
   2 C2             0.0021    -0.0041     0.0020 C.3     
   3 C3             0.6797    -0.4993    -1.2777 C.3     
   4 C4             2.1079     0.0494    -1.3384 C.3     
   5 C5             2.0615     1.5788    -1.2797 C.3     
   6 C6             1.3439     2.0138     0.0000 C.3     
   7 O7             2.8583    -0.4485    -0.2290 O.3     
   8 C8            -0.7829     1.9741     1.1559 C.3     
   9 C9             4.8717    -1.6096    -6.1124 C.3     
  10 N10            6.1281    -2.0463    -5.4623 N.3     
  11 C11            6.1693    -1.2632    -4.2065 C.3     
  12 C12            4.7267    -0.9782    -3.8555 C.ar    
  13 C13            4.1278    -0.5798    -2.6757 C.ar    
  14 C14            2.7602    -0.3856    -2.6253 C.ar    
  15 C15            1.9907    -0.5911    -3.7555 C.ar    
  16 C16            2.5890    -0.9901    -4.9358 C.ar    
  17 C17            3.9562    -1.1839    -4.9871 C.ar    
  18 H18            0.5557    -0.3645     0.8690 H       
  19 H19           -1.0198    -0.3814     0.0413 H       
  20 H20            0.7083    -1.5890    -1.2760 H       
  21 H21            0.1187    -0.1507    -2.1448 H       
  22 H22            3.0774     1.9739    -1.2795 H       
  23 H23            1.5223     1.9601    -2.1469 H       
  24 H24            1.2966     3.1021     0.0379 H       
  25 H25            1.8912     1.6439     0.8670 H       
  26 H26            3.7746    -0.1405    -0.2040 H       
  27 H27           -0.3257     1.6256     2.0820 H       
  28 H28           -0.7816     3.0639     1.1376 H       
  29 H29           -1.8090     1.6109     1.0982 H       
  30 H30            5.0650    -0.7691    -6.7790 H       
  31 H31            4.4275    -2.4363    -6.6668 H       
  32 H32            6.1107    -3.0367    -5.2705 H       
  33 H33            6.6415    -1.8453    -3.4152 H       
  34 H34            6.7104    -0.3299    -4.3624 H       
  35 H35            4.7286    -0.4197    -1.7926 H       
  36 H36            0.9221    -0.4401    -3.7159 H       
  37 H37            1.9876    -1.1508    -5.8184 H       
  38 Cl38          11.7104     8.1021     7.0820 Cl      
  39 H39           11.7104     9.4721     7.0820 H       
  40 Cl40          16.7104    14.4721    12.0820 Cl      
  41 H41           16.7104    15.8421    12.0820 H       
@<TRIPOS>BOND
   1    1    2 1
   2    1    6 1
   3    1    8 1
   4    2    3 1
   5    2   18 1
   6    2   19 1
   7    3    4 1
   8    3   20 1
   9    3   21 1
  10    4    5 1
  11    4    7 1
  12    4   14 1
  13    5    6 1
  14    5   22 1
  15    5   23 1
  16    6   24 1
  17    6   25 1
  18    7   26 1
  19    8   27 1
  20    8   28 1
  21    8   29 1
  22    9   10 1
  23    9   17 1
  24    9   30 1
  25    9   31 1
  26   10   11 1
  27   10   32 1
  28   11   12 1
  29   11   33 1
  30   11   34 1
  31   12   13 ar
  32   12   17 ar
  33   13   14 ar
  34   13   35 1
  35   14   15 ar
  36   15   16 ar
  37   15   36 1
  38   16   17 ar
  39   16   37 1
  40   38   39 1
  41   40   41 1

#	End of record

