#	Name: ASD00100162
#	Creating user name:	WinNT
#	Creation time:	15. 06. 2019 18:30

#	Modifying user name:	WinNT
#	Modification time:	15. 06. 2019 18:30

#	Program:	/corina/corina34_cracker 3.40 0067  02.08.2006

@<TRIPOS>MOLECULE
ASD00100162
  53   56    0    0    0
SMALL
NO_CHARGES


@<TRIPOS>ATOM
   1 C1            -1.6406     4.4425    -0.7843 C.ar    
   2 C2            -0.4299     5.1097    -0.7924 C.ar    
   3 C3            -0.3393     6.3704    -1.3520 C.ar    
   4 C4            -1.4592     6.9638    -1.9040 C.ar    
   5 C5            -2.6696     6.2962    -1.8967 C.ar    
   6 C6            -2.7606     5.0360    -1.3358 C.ar    
   7 S7            -1.7545     2.8325    -0.0775 S.o2    
   8 O8            -2.9282     2.2398    -0.6164 O.2     
   9 O9            -0.4641     2.2495    -0.1972 O.2     
  10 N10           -2.0311     3.0273     1.5436 N.am    
  11 C11           -1.0661     3.6377     2.3484 C.ar    
  12 C12           -1.4400     4.6252     3.2521 C.ar    
  13 C13           -0.4891     5.2291     4.0475 C.ar    
  14 C14            0.8479     4.8480     3.9451 C.ar    
  15 C15            1.2205     3.8570     3.0383 C.ar    
  16 C16            0.2655     3.2524     2.2483 C.ar    
  17 C17            2.7836     6.8006     6.2808 C.2     
  18 N18            1.6471     6.4690     5.7180 N.2     
  19 C19            1.8727     5.4966     4.7994 C.2     
  20 C20            3.2006     5.2223     4.8003 C.2     
  21 N21            3.7774     6.0468     5.7371 N.pl3   
  22 C22            5.1993     6.1036     6.0852 C.3     
  23 C23            5.4595     5.2227     7.2800 C.ar    
  24 C24            5.6496     3.8590     7.1089 C.ar    
  25 C25            5.8889     3.0509     8.2106 C.ar    
  26 C26            5.9373     3.6054     9.4752 C.ar    
  27 C27            5.7471     4.9644     9.6430 C.ar    
  28 C28            5.5145     5.7731     8.5456 C.ar    
  29 O29            5.6010     3.3158     5.8641 O.3     
  30 C30            5.8057     1.9052     5.7633 C.3     
  31 N31            2.9467     7.7633     7.2622 N.pl3   
  32 H32            0.4450     4.6461    -0.3611 H       
  33 H33            0.6064     6.8920    -1.3577 H       
  34 H34           -1.3885     7.9491    -2.3406 H       
  35 H35           -3.5447     6.7599    -2.3277 H       
  36 H36           -3.7064     4.5146    -1.3298 H       
  37 H37           -2.8631     2.7175     1.9343 H       
  38 H38           -2.4759     4.9201     3.3311 H       
  39 H39           -0.7800     5.9969     4.7491 H       
  40 H40            2.2557     3.5602     2.9573 H       
  41 H41            0.5532     2.4817     1.5486 H       
  42 H42            3.7079     4.4954     4.1833 H       
  43 H43            5.7943     5.7557     5.2408 H       
  44 H44            5.4740     7.1309     6.3245 H       
  45 H45            6.0368     1.9890     8.0801 H       
  46 H46            6.1236     2.9766    10.3333 H       
  47 H47            5.7847     5.3958    10.6323 H       
  48 H48            5.3710     6.8352     8.6788 H       
  49 H49            5.0409     1.3849     6.3399 H       
  50 H50            5.7415     1.6025     4.7182 H       
  51 H51            6.7909     1.6521     6.1550 H       
  52 H52            2.1709     8.2026     7.6444 H       
  53 H53            3.8368     7.9985     7.5677 H       
@<TRIPOS>BOND
   1    1    2 ar
   2    1    6 ar
   3    1    7 1
   4    2    3 ar
   5    2   32 1
   6    3    4 ar
   7    3   33 1
   8    4    5 ar
   9    4   34 1
  10    5    6 ar
  11    5   35 1
  12    6   36 1
  13    7    8 2
  14    7    9 2
  15    7   10 am
  16   10   11 1
  17   10   37 1
  18   11   12 ar
  19   11   16 ar
  20   12   13 ar
  21   12   38 1
  22   13   14 ar
  23   13   39 1
  24   14   15 ar
  25   14   19 1
  26   15   16 ar
  27   15   40 1
  28   16   41 1
  29   17   18 2
  30   17   21 1
  31   17   31 1
  32   18   19 1
  33   19   20 2
  34   20   21 1
  35   20   42 1
  36   21   22 1
  37   22   23 1
  38   22   43 1
  39   22   44 1
  40   23   24 ar
  41   23   28 ar
  42   24   25 ar
  43   24   29 1
  44   25   26 ar
  45   25   45 1
  46   26   27 ar
  47   26   46 1
  48   27   28 ar
  49   27   47 1
  50   28   48 1
  51   29   30 1
  52   30   49 1
  53   30   50 1
  54   30   51 1
  55   31   52 1
  56   31   53 1

#	End of record

