#	Name: ASD01883590
#	Creating user name:	WinNT
#	Creation time:	15. 06. 2019 19:46

#	Modifying user name:	WinNT
#	Modification time:	15. 06. 2019 19:46

#	Program:	/corina/corina34_cracker 3.40 0067  02.08.2006

@<TRIPOS>MOLECULE
ASD01883590
  50   52    0    0    0
SMALL
NO_CHARGES


@<TRIPOS>ATOM
   1 C1            -2.0611     2.1174     0.1312 C.2     
   2 C2            -2.5120     0.8513     0.2553 C.2     
   3 N3            -1.7124    -0.1309     0.7497 N.am    
   4 C4            -0.4478     0.1262     1.1313 C.2     
   5 C5             0.0703     1.4251     1.0237 C.2     
   6 C6            -0.7389     2.4332     0.5193 C.2     
   7 O7             0.2502    -0.7733     1.5726 O.2     
   8 Cl8            1.7001     1.7666     1.5145 Cl      
   9 C9            -0.2267     3.8165     0.3910 C.ar    
  10 C10           -0.0830     4.3946    -0.8708 C.ar    
  11 C11            0.3944     5.6833    -0.9866 C.ar    
  12 C12            0.7322     6.4055     0.1522 C.ar    
  13 C13            0.5901     5.8321     1.4094 C.ar    
  14 C14            0.1081     4.5468     1.5321 C.ar    
  15 O15            1.2026     7.6742     0.0353 O.3     
  16 C16            1.6233     8.3051     1.1630 C.ar    
  17 C17            2.9426     8.1855     1.5880 C.ar    
  18 C18            3.3245     8.8474     2.7440 C.ar    
  19 C19            2.3900     9.5986     3.4316 C.ar    
  20 N20            1.1467     9.6914     3.0017 N.ar    
  21 C21            0.7444     9.0824     1.9041 C.ar    
  22 C22           -2.2371    -1.4934     0.8696 C.3     
  23 C23           -1.9576    -2.2631    -0.4228 C.3     
  24 Cl24           0.5743     6.4039    -2.5557 Cl      
  25 C25            2.7973    10.3210     4.6899 C.3     
  26 C26           -2.5056    -3.6861    -0.2976 C.3     
  27 C27           -4.0301    -3.6369    -0.1774 C.3     
  28 C28           -2.1176    -4.4930    -1.5383 C.3     
  29 H29           -2.7069     2.8858    -0.2674 H       
  30 H30           -3.5230     0.6150    -0.0421 H       
  31 H31           -0.3451     3.8335    -1.7556 H       
  32 H32            0.8534     6.3958     2.2922 H       
  33 H33           -0.0023     4.1021     2.5100 H       
  34 H34            3.6517     7.5912     1.0309 H       
  35 H35            4.3404     8.7767     3.1037 H       
  36 H36           -0.2820     9.1819     1.5834 H       
  37 H37           -1.7513    -1.9976     1.7050 H       
  38 H38           -3.3123    -1.4547     1.0442 H       
  39 H39           -2.4434    -1.7589    -1.2582 H       
  40 H40           -0.8824    -2.3019    -0.5974 H       
  41 H41            3.1498    11.3209     4.4369 H       
  42 H42            1.9402    10.3964     5.3591 H       
  43 H43            3.5963     9.7681     5.1839 H       
  44 H44           -2.0863    -4.1601     0.5899 H       
  45 H45           -4.3065    -3.0620     0.7065 H       
  46 H46           -4.4494    -3.1629    -1.0649 H       
  47 H47           -4.4204    -4.6506    -0.0882 H       
  48 H48           -1.0316    -4.5281    -1.6239 H       
  49 H49           -2.5080    -5.5068    -1.4491 H       
  50 H50           -2.5369    -4.0190    -2.4257 H       
@<TRIPOS>BOND
   1    1    2 2
   2    1    6 1
   3    1   29 1
   4    2    3 1
   5    2   30 1
   6    3    4 am
   7    3   22 1
   8    4    5 1
   9    4    7 2
  10    5    6 2
  11    5    8 1
  12    6    9 1
  13    9   10 ar
  14    9   14 ar
  15   10   11 ar
  16   10   31 1
  17   11   12 ar
  18   11   24 1
  19   12   13 ar
  20   12   15 1
  21   13   14 ar
  22   13   32 1
  23   14   33 1
  24   15   16 1
  25   16   17 ar
  26   16   21 ar
  27   17   18 ar
  28   17   34 1
  29   18   19 ar
  30   18   35 1
  31   19   20 ar
  32   19   25 1
  33   20   21 ar
  34   21   36 1
  35   22   23 1
  36   22   37 1
  37   22   38 1
  38   23   26 1
  39   23   39 1
  40   23   40 1
  41   25   41 1
  42   25   42 1
  43   25   43 1
  44   26   27 1
  45   26   28 1
  46   26   44 1
  47   27   45 1
  48   27   46 1
  49   27   47 1
  50   28   48 1
  51   28   49 1
  52   28   50 1

#	End of record

