#	Name: ASD01812519
#	Creating user name:	WinNT
#	Creation time:	15. 06. 2019 19:28

#	Modifying user name:	WinNT
#	Modification time:	15. 06. 2019 19:28

#	Program:	/corina/corina34_cracker 3.40 0067  02.08.2006

@<TRIPOS>MOLECULE
ASD01812519
  48   52    0    0    0
SMALL
NO_CHARGES


@<TRIPOS>ATOM
   1 C1            -0.0177     1.4559     0.0100 C.ar    
   2 C2             0.0021    -0.0041     0.0020 C.ar    
   3 C3            -1.2308    -0.7010     0.0100 C.ar    
   4 C4            -2.4445     0.0180     0.0264 C.ar    
   5 C5            -2.4564     1.3721     0.0343 C.ar    
   6 C6            -1.2629     2.1111     0.0314 C.ar    
   7 C7            -1.2223    -2.1042     0.0024 C.ar    
   8 C8            -0.0349    -2.7735    -0.0125 C.ar    
   9 C9             1.1743    -2.0857    -0.0203 C.ar    
  10 C10            1.2024    -0.7215    -0.0128 C.ar    
  11 N11            1.1111     2.1838     0.0032 N.2     
  12 C12            1.0865     3.4850     0.0104 C.2     
  13 N13           -0.0647     4.2044     0.0256 N.am    
  14 C14           -1.2647     3.5791     0.0393 C.2     
  15 C15           -3.7504    -0.7340     0.0347 C.3     
  16 C16           -4.1100    -1.1006     1.4516 C.ar    
  17 C17           -3.6805    -2.2959     1.9936 C.ar    
  18 C18           -4.8715    -0.2380     2.2275 C.ar    
  19 C19           -5.1791    -0.6136     3.5238 C.ar    
  20 C20           -4.7182    -1.8335     4.0013 C.ar    
  21 N21           -3.9901    -2.6265     3.2327 N.ar    
  22 O22           -2.3064     4.2100     0.0572 O.2     
  23 O23           -5.0126    -2.2129     5.2703 O.3     
  24 C24           -4.5095    -3.4788     5.7021 C.3     
  25 C25           -0.0098     5.6077     0.0330 C.2     
  26 N26           -1.0459     6.4516     0.1419 N.2     
  27 N27           -0.6072     7.6599     0.1109 N.2     
  28 N28            0.6737     7.6687    -0.0136 N.pl3   
  29 C29            1.1051     6.3796    -0.0628 C.2     
  30 C30            1.5215     8.8613    -0.0846 C.3     
  31 H31           -3.4022     1.8934     0.0465 H       
  32 H32           -2.1531    -2.6519     0.0086 H       
  33 H33           -0.0328    -3.8534    -0.0180 H       
  34 H34            2.1021    -2.6383    -0.0321 H       
  35 H35            2.1472    -0.1982    -0.0193 H       
  36 H36            2.0260     4.0175     0.0043 H       
  37 H37           -4.5343    -0.1056    -0.3880 H       
  38 H38           -3.6511    -1.6412    -0.5613 H       
  39 H39           -3.0838    -2.9687     1.3954 H       
  40 H40           -5.2159     0.7049     1.8292 H       
  41 H41           -5.7695     0.0336     4.1555 H       
  42 H42           -3.4211    -3.4769     5.6420 H       
  43 H43           -4.8161    -3.6593     6.7324 H       
  44 H44           -4.9074    -4.2657     5.0614 H       
  45 H45            2.1253     6.0388    -0.1598 H       
  46 H46            1.8316     9.1470     0.9206 H       
  47 H47            2.4025     8.6454    -0.6890 H       
  48 H48            0.9613     9.6789    -0.5381 H       
@<TRIPOS>BOND
   1    1    2 ar
   2    1   11 1
   3    1    6 ar
   4    2   10 ar
   5    2    3 ar
   6    3    4 ar
   7    3    7 ar
   8    4    5 ar
   9    4   15 1
  10    5    6 ar
  11    5   31 1
  12    6   14 1
  13    7    8 ar
  14    7   32 1
  15    8    9 ar
  16    8   33 1
  17    9   10 ar
  18    9   34 1
  19   10   35 1
  20   11   12 2
  21   12   13 1
  22   12   36 1
  23   13   14 am
  24   13   25 1
  25   14   22 2
  26   15   16 1
  27   15   37 1
  28   15   38 1
  29   16   18 ar
  30   16   17 ar
  31   17   21 ar
  32   17   39 1
  33   18   19 ar
  34   18   40 1
  35   19   20 ar
  36   19   41 1
  37   20   21 ar
  38   20   23 1
  39   23   24 1
  40   24   42 1
  41   24   43 1
  42   24   44 1
  43   25   26 1
  44   25   29 2
  45   26   27 2
  46   27   28 1
  47   28   29 1
  48   28   30 1
  49   29   45 1
  50   30   46 1
  51   30   47 1
  52   30   48 1

#	End of record

