#	Name: ASD03731871
#	Creating user name:	WinNT
#	Creation time:	15. 06. 2019 20:46

#	Modifying user name:	WinNT
#	Modification time:	15. 06. 2019 20:46

#	Program:	/corina/corina34_cracker 3.40 0067  02.08.2006

@<TRIPOS>MOLECULE
ASD03731871
  22   22    0    0    0
SMALL
NO_CHARGES


@<TRIPOS>ATOM
   1 C1            -0.0179     1.4715     0.0101 C.2     
   2 C2             0.0021    -0.0041     0.0020 C.ar    
   3 C3             1.2216    -0.6900    -0.0133 C.ar    
   4 C4             1.2330    -2.0716    -0.0209 C.ar    
   5 C5             0.0405    -2.7763    -0.0133 C.ar    
   6 C6            -1.1718    -2.1003     0.0019 C.ar    
   7 C7            -1.1964    -0.7218     0.0154 C.ar    
   8 O8             1.0266     2.0937     0.0035 O.2     
   9 N9            -1.1942     2.1295     0.0193 N.am    
  10 S10           -1.2166     3.7853     0.0284 S.o2    
  11 O11           -2.5980     4.1168     0.0625 O.2     
  12 O12           -0.3511     4.1416     1.0975 O.2     
  13 C13           -0.4880     4.2566    -1.5646 C.3     
  14 F14            0.0574    -4.1272    -0.0212 F       
  15 F15            2.3849    -0.0031    -0.0211 F       
  16 Cl16          -2.6607    -2.9929     0.0112 Cl      
  17 H17            2.1731    -2.6029    -0.0331 H       
  18 H18           -2.1406    -0.1978     0.0317 H       
  19 H19           -2.0275     1.6331     0.0205 H       
  20 H20           -1.0900     3.8459    -2.3752 H       
  21 H21           -0.4628     5.3433    -1.6453 H       
  22 H22            0.5266     3.8638    -1.6305 H       
@<TRIPOS>BOND
   1    1    2 1
   2    1    8 2
   3    1    9 am
   4    2    3 ar
   5    2    7 ar
   6    3    4 ar
   7    3   15 1
   8    4    5 ar
   9    4   17 1
  10    5    6 ar
  11    5   14 1
  12    6    7 ar
  13    6   16 1
  14    7   18 1
  15    9   10 am
  16    9   19 1
  17   10   11 2
  18   10   12 2
  19   10   13 1
  20   13   20 1
  21   13   21 1
  22   13   22 1

#	End of record

