#	Name: ASD01202019
#	Creating user name:	WinNT
#	Creation time:	15. 06. 2019 19:09

#	Modifying user name:	WinNT
#	Modification time:	15. 06. 2019 19:09

#	Program:	/corina/corina34_cracker 3.40 0067  02.08.2006

@<TRIPOS>MOLECULE
ASD01202019
  44   47    0    0    0
SMALL
NO_CHARGES


@<TRIPOS>ATOM
   1 C1            -0.0172     1.4165     0.0098 C.2     
   2 C2             0.0021    -0.0041     0.0020 C.2     
   3 C3             1.2791     1.8217    -0.0004 C.2     
   4 C4             1.3169    -0.3754    -0.0125 C.2     
   5 C5            -1.1673    -0.9016     0.0084 C.2     
   6 O6             2.0694     0.7301    -0.0138 O.3     
   7 C7             1.8321    -1.7915    -0.0251 C.3     
   8 O8            -1.0085    -2.1072     0.0008 O.2     
   9 N9            -2.4125    -0.3859     0.0225 N.am    
  10 C10           -3.5144    -1.2317     0.0285 C.2     
  11 N11           -4.7437    -0.8426     0.0419 N.2     
  12 S12           -3.4379    -2.9372     0.0117 S.3     
  13 C13           -5.6924    -1.7849     0.0402 C.2     
  14 C14           -5.2013    -3.0282     0.0252 C.2     
  15 H15           -2.5391     0.5757     0.0285 H       
  16 C16           -7.2179    -1.8343     0.0499 C.3     
  17 C17           -7.5699    -3.2713     0.4848 C.3     
  18 C18           -6.3209    -4.0525     0.0260 C.3     
  19 C19            1.7435     3.2205     0.0027 C.ar    
  20 C20            1.2212     4.1365    -0.9105 C.ar    
  21 C21            2.7167     3.6451     0.9341 C.ar    
  22 C22            3.1456     4.9762     0.9224 C.ar    
  23 C23            2.6188     5.8609     0.0068 C.ar    
  24 C24            1.6593     5.4442    -0.9034 C.ar    
  25 C25            3.2726     2.6977     1.9062 C.2     
  26 C26            4.3107     3.1572     2.8973 C.3     
  27 O27            2.8968     1.5442     1.9123 O.2     
  28 H28           -0.8917     2.0502     0.0176 H       
  29 H29            1.9465    -2.1274    -1.0557 H       
  30 H30            2.7975    -1.8314     0.4794 H       
  31 H31            1.1249    -2.4400     0.4921 H       
  32 H32           -7.6154    -1.1143     0.7652 H       
  33 H33           -7.6095    -1.6340    -0.9474 H       
  34 H34           -7.6931    -3.3326     1.5661 H       
  35 H35           -8.4631    -3.6267    -0.0290 H       
  36 H36           -6.4705    -4.4519    -0.9772 H       
  37 H37           -6.0984    -4.8575     0.7264 H       
  38 H38            0.4737     3.8214    -1.6235 H       
  39 H39            3.8891     5.3105     1.6308 H       
  40 H40            2.9524     6.8881     0.0011 H       
  41 H41            1.2552     6.1483    -1.6157 H       
  42 H42            4.5199     4.2153     2.7400 H       
  43 H43            3.9374     3.0073     3.9103 H       
  44 H44            5.2257     2.5813     2.7583 H       
@<TRIPOS>BOND
   1    1    2 1
   2    1    3 2
   3    1   28 1
   4    2    4 2
   5    2    5 1
   6    3    6 1
   7    3   19 1
   8    4    7 1
   9    4    6 1
  10    5    8 2
  11    5    9 am
  12    7   29 1
  13    7   30 1
  14    7   31 1
  15    9   15 1
  16    9   10 1
  17   10   11 2
  18   10   12 1
  19   11   13 1
  20   12   14 1
  21   13   16 1
  22   13   14 2
  23   14   18 1
  24   16   17 1
  25   16   32 1
  26   16   33 1
  27   17   18 1
  28   17   34 1
  29   17   35 1
  30   18   36 1
  31   18   37 1
  32   19   20 ar
  33   19   21 ar
  34   20   24 ar
  35   20   38 1
  36   21   22 ar
  37   21   25 1
  38   22   23 ar
  39   22   39 1
  40   23   24 ar
  41   23   40 1
  42   24   41 1
  43   25   26 1
  44   25   27 2
  45   26   42 1
  46   26   43 1
  47   26   44 1

#	End of record

