#	Name: ASD02039397
#	Creating user name:	WinNT
#	Creation time:	15. 06. 2019 20:18

#	Modifying user name:	WinNT
#	Modification time:	15. 06. 2019 20:18

#	Program:	/corina/corina34_cracker 3.40 0067  02.08.2006

@<TRIPOS>MOLECULE
ASD02039397
  54   57    0    0    0
SMALL
NO_CHARGES


@<TRIPOS>ATOM
   1 C1            -0.1271     1.5234    -0.1521 C.ar    
   2 C2            -0.1250     0.1393    -0.0541 C.ar    
   3 C3            -1.3215    -0.5485    -0.1408 C.ar    
   4 C4            -2.5057     1.4158    -0.4018 C.ar    
   5 C5            -1.3375     2.1715    -0.3288 C.ar    
   6 C6            -3.8105     2.0951    -0.5914 C.2     
   7 C7             1.1588     2.3040    -0.0620 C.3     
   8 N8             1.7991     2.3441    -1.3790 N.am    
   9 C9             1.3656     3.3274    -2.3747 C.3     
  10 C10            2.7870     1.4763    -1.6747 C.2     
  11 C11            3.1633     0.4310    -0.7071 C.2     
  12 C12            4.1818    -0.4661    -0.8447 C.2     
  13 N13            2.5635     0.1888     0.4864 N.2     
  14 C14            3.1667    -0.8085     1.0660 C.2     
  15 N15            4.1769    -1.2395     0.2665 N.pl3   
  16 O16            3.3678     1.5561    -2.7403 O.2     
  17 C17            5.0957    -2.3436     0.5547 C.3     
  18 C18           -3.8801     3.5670    -0.7034 C.2     
  19 N19           -2.4592     0.0925    -0.3147 N.ar    
  20 C20            2.5143     4.2936    -2.6711 C.3     
  21 C21            0.9611     2.6058    -3.6617 C.3     
  22 C22           -4.9537     1.3759    -0.6699 C.2     
  23 C23           -6.2360     2.1436    -0.8463 C.3     
  24 C24           -6.1510     3.4215    -0.0049 C.3     
  25 N25           -4.9828     4.1935    -0.4229 N.2     
  26 C26           -7.4373     1.3559    -0.4057 C.2     
  27 C27           -8.5510     2.0238    -0.0936 C.2     
  28 C28           -8.5788     3.4935    -0.1996 C.2     
  29 C29           -7.4365     4.1842    -0.1525 C.2     
  30 H30            0.8023    -0.3957     0.0881 H       
  31 H31           -1.3233    -1.6259    -0.0652 H       
  32 H32           -1.3766     3.2484    -0.3999 H       
  33 H33            0.9445     3.3202     0.2689 H       
  34 H34            1.8267     1.8226     0.6523 H       
  35 H35            0.5128     3.8849    -1.9873 H       
  36 H36            4.8616    -0.5447    -1.6802 H       
  37 H37            2.9079    -1.2241     2.0286 H       
  38 H38            4.6795    -3.2732     0.1666 H       
  39 H39            6.0572    -2.1496     0.0794 H       
  40 H40            5.2339    -2.4294     1.6325 H       
  41 H41           -3.0105     4.1241    -1.0195 H       
  42 H42            3.3335     3.7503    -3.1422 H       
  43 H43            2.1652     5.0781    -3.3424 H       
  44 H44            2.8627     4.7405    -1.7400 H       
  45 H45            0.2083     1.8512    -3.4339 H       
  46 H46            0.5506     3.3266    -4.3688 H       
  47 H47            1.8362     2.1255    -4.0993 H       
  48 H48           -4.9463     0.2976    -0.6091 H       
  49 H49           -6.3550     2.4106    -1.8963 H       
  50 H50           -6.0380     3.1450     1.0434 H       
  51 H51           -7.4013     0.2783    -0.3433 H       
  52 H52           -9.4290     1.4882     0.2361 H       
  53 H53           -9.5200     4.0104    -0.3154 H       
  54 H54           -7.4372     5.2622    -0.2185 H       
@<TRIPOS>BOND
   1    1    2 ar
   2    1    7 1
   3    1    5 ar
   4    2    3 ar
   5    2   30 1
   6    3   19 ar
   7    3   31 1
   8    4    5 ar
   9    4    6 1
  10    4   19 ar
  11    5   32 1
  12    6   18 1
  13    6   22 2
  14    7    8 1
  15    7   33 1
  16    7   34 1
  17    8    9 1
  18    8   10 am
  19    9   20 1
  20    9   21 1
  21    9   35 1
  22   10   11 1
  23   10   16 2
  24   11   12 2
  25   11   13 1
  26   12   15 1
  27   12   36 1
  28   13   14 2
  29   14   15 1
  30   14   37 1
  31   15   17 1
  32   17   38 1
  33   17   39 1
  34   17   40 1
  35   18   25 2
  36   18   41 1
  37   20   42 1
  38   20   43 1
  39   20   44 1
  40   21   45 1
  41   21   46 1
  42   21   47 1
  43   22   23 1
  44   22   48 1
  45   23   24 1
  46   23   26 1
  47   23   49 1
  48   24   25 1
  49   24   29 1
  50   24   50 1
  51   26   27 2
  52   26   51 1
  53   27   28 1
  54   27   52 1
  55   28   29 2
  56   28   53 1
  57   29   54 1

#	End of record

