#	Name: ASD05060018
#	Creating user name:	WinNT
#	Creation time:	15. 06. 2019 20:56

#	Modifying user name:	WinNT
#	Modification time:	15. 06. 2019 20:56

#	Program:	/corina/corina34_cracker 3.40 0067  02.08.2006

@<TRIPOS>MOLECULE
ASD05060018
 130  129    0    0    0
SMALL
NO_CHARGES


@<TRIPOS>ATOM
   1 C1            -5.0594    -3.5395    -1.6290 C.2     
   2 O2            -5.5459    -4.6248    -1.8666 O.2     
   3 N3            -2.9103    -4.6691    -1.5270 N.3     
   4 C4            -3.5635    -3.3604    -1.6637 C.3     
   5 C5            -3.1568    -2.7239    -2.9943 C.3     
   6 O6            -1.7549    -2.4472    -2.9812 O.3     
   7 C7            -7.9797    -1.3412    -1.5795 C.2     
   8 O8            -7.3072    -0.3510    -1.7747 O.2     
   9 N9            -5.8569    -2.4924    -1.3392 N.am    
  10 C10           -7.3114    -2.6651    -1.3114 C.3     
  11 C11           -7.7374    -3.1820     0.0642 C.3     
  12 C12           -7.1594    -4.5814     0.2846 C.3     
  13 C13           -7.4798    -5.0475     1.7062 C.3     
  14 C14           -7.7780    -5.5531    -0.7223 C.3     
  15 C15          -11.3540     0.0275    -1.2568 C.2     
  16 O16          -11.7551    -0.9523    -0.6651 O.2     
  17 N17           -9.3247    -1.2577    -1.6025 N.am    
  18 C18           -9.9743     0.0292    -1.8631 C.3     
  19 C19          -10.0813     0.2499    -3.3734 C.3     
  20 C20           -8.6785     0.3762    -3.9709 C.3     
  21 C21           -8.7855     0.5969    -5.4812 C.3     
  22 C22           -7.3827     0.7232    -6.0788 C.3     
  23 N23           -7.4854     0.9350    -7.5288 N.3     
  24 C24          -14.4139     1.8394    -1.8220 C.2     
  25 O25          -13.9420     2.3798    -2.7999 O.2     
  26 N26          -12.1421     1.1147    -1.3720 N.am    
  27 C27          -13.5210     1.0755    -0.8786 C.3     
  28 C28          -13.5837     1.7123     0.5111 C.3     
  29 C29          -12.9639     3.1103     0.4600 C.3     
  30 C30          -13.8262     4.0186    -0.4188 C.3     
  31 C31          -12.8068     0.8461     1.5046 C.3     
  32 C32          -17.8119     3.1779    -1.6629 C.2     
  33 O33          -17.9589     2.8201    -0.5134 O.2     
  34 N34          -15.7371     1.9221    -1.5791 N.am    
  35 C35          -16.5880     2.7542    -2.4334 C.3     
  36 C36          -17.0131     1.9526    -3.6653 C.3     
  37 C37          -20.9974     3.1870    -1.7838 C.2     
  38 O38          -20.7115     2.2365    -2.4807 O.2     
  39 N39          -18.7432     3.9545    -2.2512 N.am    
  40 C40          -19.9839     4.2756    -1.5415 C.3     
  41 C41          -20.5343     5.6081    -2.0538 C.3     
  42 C42          -19.5221     6.6973    -1.8085 C.2     
  43 O43          -18.4353     6.4222    -1.3459 O.2     
  44 N44          -19.8247     7.9772    -2.1031 N.am    
  45 C45          -24.5227     2.7087    -1.7541 C.2     
  46 O46          -24.7348     3.9012    -1.6923 O.2     
  47 N47          -22.2215     3.2697    -1.2260 N.am    
  48 C48          -23.1702     2.1632    -1.3742 C.3     
  49 C49          -23.2798     1.4046    -0.0500 C.3     
  50 C50          -21.9174     0.8091     0.3109 C.3     
  51 C51          -22.0006     0.1411     1.6848 C.3     
  52 C52          -21.5213    -0.2311    -0.7389 C.3     
  53 C53          -27.6975     2.6175    -1.4639 C.2     
  54 O54          -27.4416     2.1130    -0.3963 O.2     
  55 N55          -25.4966     1.8712    -2.1625 N.am    
  56 C56          -26.7741     2.4092    -2.6365 C.3     
  57 C57          -27.4104     1.4226    -3.6177 C.3     
  58 C58          -26.5455     1.3080    -4.8465 C.2     
  59 O59          -25.5250     1.9496    -4.9290 O.2     
  60 O60          -26.9089     0.4932    -5.8494 O.3     
  61 O61          -28.8043     3.3636    -1.6055 O.3     
  62 O62          -23.6951     2.3030     0.9807 O.3     
  63 H63           -3.1115    -5.0815    -0.6284 H       
  64 H64           -3.1796    -5.2877    -2.2773 H       
  65 H65           -3.2559    -2.7133    -0.8423 H       
  66 H66           -3.3841    -3.4104    -3.8099 H       
  67 H67           -3.7092    -1.7951    -3.1366 H       
  68 H68           -1.4264    -2.0418    -3.7953 H       
  69 H69           -5.4678    -1.6244    -1.1492 H       
  70 H70           -7.6068    -3.3828    -2.0767 H       
  71 H71           -7.3647    -2.5092     0.8366 H       
  72 H72           -8.8253    -3.2262     0.1149 H       
  73 H73           -6.0785    -4.5540     0.1462 H       
  74 H74           -8.5606    -5.0749     1.8446 H       
  75 H75           -7.0680    -6.0444     1.8632 H       
  76 H76           -7.0390    -4.3552     2.4236 H       
  77 H77           -7.5497    -5.2210    -1.7351 H       
  78 H78           -7.3662    -6.5500    -0.5653 H       
  79 H79           -8.8588    -5.5805    -0.5839 H       
  80 H80           -9.8625    -2.0497    -1.4464 H       
  81 H81           -9.3836     0.8308    -1.4198 H       
  82 H82          -10.5953    -0.5966    -3.8287 H       
  83 H83          -10.6429     1.1636    -3.5682 H       
  84 H84           -8.1645     1.2227    -3.5156 H       
  85 H85           -8.1170    -0.5375    -3.7761 H       
  86 H86           -9.2995    -0.2496    -5.9365 H       
  87 H87           -9.3470     1.5105    -5.6760 H       
  88 H88           -6.8686     1.5697    -5.6234 H       
  89 H89           -6.8211    -0.1905    -5.8839 H       
  90 H90           -6.5713     1.0216    -7.9472 H       
  91 H91           -8.0144     0.1953    -7.9657 H       
  92 H92          -11.7963     1.9232    -1.7815 H       
  93 H93          -13.8563     0.0400    -0.8193 H       
  94 H94          -14.6234     1.7872     0.8299 H       
  95 H95          -12.9127     3.5221     1.4679 H       
  96 H96          -11.9594     3.0472     0.0417 H       
  97 H97          -13.6003     3.8296    -1.4683 H       
  98 H98          -14.8799     3.8120    -0.2311 H       
  99 H99          -13.6128     5.0612    -0.1832 H       
 100 H100         -11.7472     0.8622     1.2496 H       
 101 H101         -12.9440     1.2375     2.5126 H       
 102 H102         -13.1759    -0.1785     1.4594 H       
 103 H103         -16.1259     1.4307    -0.8387 H       
 104 H104         -16.0331     3.6378    -2.7486 H       
 105 H105         -17.5680     1.0690    -3.3501 H       
 106 H106         -17.6463     2.5717    -4.3009 H       
 107 H107         -16.1279     1.6461    -4.2226 H       
 108 H108         -18.5919     4.3008    -3.1446 H       
 109 H109         -19.7818     4.3527    -0.4731 H       
 110 H110         -20.7341     5.5318    -3.1226 H       
 111 H111         -21.4587     5.8458    -1.5275 H       
 112 H112         -20.6940     8.1973    -2.4731 H       
 113 H113         -19.1732     8.6783    -1.9452 H       
 114 H114         -22.4744     4.0618    -0.7265 H       
 115 H115         -22.8198     1.4859    -2.1530 H       
 116 H116         -24.0117     0.6031    -0.1500 H       
 117 H117         -21.1698     1.6019     0.3370 H       
 118 H118         -22.7482    -0.6517     1.6586 H       
 119 H119         -21.0301    -0.2832     1.9419 H       
 120 H120         -22.2829     0.8821     2.4326 H       
 121 H121         -21.4274     0.2519    -1.7116 H       
 122 H122         -20.5674    -0.6807    -0.4629 H       
 123 H123         -22.2867    -1.0054    -0.7900 H       
 124 H124         -25.3516     0.9123    -2.1426 H       
 125 H125         -26.6035     3.3617    -3.1383 H       
 126 H126         -27.4995     0.4452    -3.1436 H       
 127 H127         -28.4000     1.7801    -3.9020 H       
 128 H128         -26.3222     0.4529    -6.6169 H       
 129 H129         -29.3658     3.4686    -0.8252 H       
 130 H130         -24.5530     2.7186     0.8181 H       
@<TRIPOS>BOND
   1    1    2 2
   2    1    4 1
   3    1    9 am
   4    3    4 1
   5    3   63 1
   6    3   64 1
   7    4    5 1
   8    4   65 1
   9    5    6 1
  10    5   66 1
  11    5   67 1
  12    6   68 1
  13    7    8 2
  14    7   10 1
  15    7   17 am
  16    9   10 1
  17    9   69 1
  18   10   11 1
  19   10   70 1
  20   11   12 1
  21   11   71 1
  22   11   72 1
  23   12   13 1
  24   12   14 1
  25   12   73 1
  26   13   74 1
  27   13   75 1
  28   13   76 1
  29   14   77 1
  30   14   78 1
  31   14   79 1
  32   15   16 2
  33   15   18 1
  34   15   26 am
  35   17   18 1
  36   17   80 1
  37   18   19 1
  38   18   81 1
  39   19   20 1
  40   19   82 1
  41   19   83 1
  42   20   21 1
  43   20   84 1
  44   20   85 1
  45   21   22 1
  46   21   86 1
  47   21   87 1
  48   22   23 1
  49   22   88 1
  50   22   89 1
  51   23   90 1
  52   23   91 1
  53   24   25 2
  54   24   27 1
  55   24   34 am
  56   26   27 1
  57   26   92 1
  58   27   28 1
  59   27   93 1
  60   28   29 1
  61   28   31 1
  62   28   94 1
  63   29   30 1
  64   29   95 1
  65   29   96 1
  66   30   97 1
  67   30   98 1
  68   30   99 1
  69   31  100 1
  70   31  101 1
  71   31  102 1
  72   32   33 2
  73   32   35 1
  74   32   39 am
  75   34   35 1
  76   34  103 1
  77   35   36 1
  78   35  104 1
  79   36  105 1
  80   36  106 1
  81   36  107 1
  82   37   38 2
  83   37   40 1
  84   37   47 am
  85   39   40 1
  86   39  108 1
  87   40   41 1
  88   40  109 1
  89   41   42 1
  90   41  110 1
  91   41  111 1
  92   42   43 2
  93   42   44 am
  94   44  112 1
  95   44  113 1
  96   45   46 2
  97   45   48 1
  98   45   55 am
  99   47   48 1
 100   47  114 1
 101   48   49 1
 102   48  115 1
 103   49   50 1
 104   49   62 1
 105   49  116 1
 106   50   51 1
 107   50   52 1
 108   50  117 1
 109   51  118 1
 110   51  119 1
 111   51  120 1
 112   52  121 1
 113   52  122 1
 114   52  123 1
 115   53   54 2
 116   53   56 1
 117   53   61 1
 118   55   56 1
 119   55  124 1
 120   56   57 1
 121   56  125 1
 122   57   58 1
 123   57  126 1
 124   57  127 1
 125   58   59 2
 126   58   60 1
 127   60  128 1
 128   61  129 1
 129   62  130 1

#	End of record

