#	Name: ASD04910034
#	Creating user name:	WinNT
#	Creation time:	15. 06. 2019 20:55

#	Modifying user name:	WinNT
#	Modification time:	15. 06. 2019 20:55

#	Program:	/corina/corina34_cracker 3.40 0067  02.08.2006

@<TRIPOS>MOLECULE
ASD04910034
  62   65    0    0    0
SMALL
NO_CHARGES


@<TRIPOS>ATOM
   1 C1             0.5985     1.5076     1.3214 C.2     
   2 C2             0.5273     0.0152     1.1244 C.3     
   3 C3             1.9434    -0.5511     1.0020 C.3     
   4 O4             1.6716     2.0614     1.3599 O.2     
   5 O5            -0.5306     2.2223     1.4486 O.3     
   6 C6             3.0077    -2.7188     0.6772 C.2     
   7 C7             2.9379    -4.1829     0.4840 C.ar    
   8 C8             4.1098    -4.9283     0.3457 C.ar    
   9 C9             4.0377    -6.2943     0.1661 C.ar    
  10 C10            2.8072    -6.9253     0.1225 C.ar    
  11 C11            1.6417    -6.1923     0.2590 C.ar    
  12 C12            1.7000    -4.8265     0.4448 C.ar    
  13 O13            4.0873    -2.1617     0.7160 O.2     
  14 N14            1.8742    -2.0019     0.8105 N.am    
  15 C15            2.7361    -8.4176    -0.0749 C.3     
  16 N16            1.6859    -8.9741     0.7817 N.pl3   
  17 C17            3.2207    -9.0350     2.6500 C.ar    
  18 C18            1.9495    -9.2371     2.1296 C.ar    
  19 C19            0.9395    -9.7051     2.9679 C.ar    
  20 C20            1.2461    -9.9513     4.2946 C.ar    
  21 C21            2.5410    -9.7255     4.7438 C.ar    
  22 N22            3.4757    -9.2806     3.9199 N.ar    
  23 N23            2.8607    -9.9716     6.0840 N.pl3   
  24 N24            1.9826   -10.4419     7.0692 N.2     
  25 C25            2.6452   -10.5461     8.1926 C.2     
  26 C26            3.9665   -10.1467     7.9639 C.2     
  27 C27            4.0788    -9.8027     6.6600 C.2     
  28 C28            5.0714   -10.1112     8.9881 C.3     
  29 F29            4.5765   -10.5436    10.2231 F       
  30 F30            6.1114   -10.9540     8.5815 F       
  31 F31            5.5520    -8.8031     9.1104 F       
  32 C32            2.4151    -8.7236    -1.5393 C.3     
  33 C33            2.4089   -10.2448    -1.7708 C.3     
  34 C34            0.9894   -10.6118    -2.2506 C.3     
  35 C35            0.4388    -9.2942    -2.8506 C.3     
  36 C36            0.9992    -8.2192    -1.8865 C.3     
  37 H37            0.0264    -0.4405     1.9785 H       
  38 H38           -0.0319    -0.2050     0.2151 H       
  39 H39            2.4444    -0.0954     0.1479 H       
  40 H40            2.5027    -0.3309     1.9113 H       
  41 H41           -0.4344     3.1765     1.5731 H       
  42 H42            5.0709    -4.4368     0.3788 H       
  43 H43            4.9438    -6.8722     0.0589 H       
  44 H44            0.6844    -6.6910     0.2240 H       
  45 H45            0.7897    -4.2561     0.5557 H       
  46 H46            1.0127    -2.4465     0.7796 H       
  47 H47            3.6946    -8.8651     0.1881 H       
  48 H48            0.8078    -9.1600     0.4139 H       
  49 H49            4.0104    -8.6768     2.0063 H       
  50 H50           -0.0589    -9.8713     2.5912 H       
  51 H51            0.4878   -10.3141     4.9726 H       
  52 H52            2.2410   -10.8830     9.1358 H       
  53 H53            4.9745    -9.4544     6.1673 H       
  54 H54            3.1508    -8.2500    -2.1893 H       
  55 H55            3.1410   -10.5094    -2.5338 H       
  56 H56            2.6345   -10.7651    -0.8400 H       
  57 H57            1.0336   -11.3891    -3.0134 H       
  58 H58            0.3744   -10.9348    -1.4107 H       
  59 H59            0.8177    -9.1419    -3.8612 H       
  60 H60           -0.6511    -9.2912    -2.8409 H       
  61 H61            0.3858    -8.1558    -0.9877 H       
  62 H62            1.0505    -7.2505    -2.3835 H       
@<TRIPOS>BOND
   1    1    2 1
   2    1    4 2
   3    1    5 1
   4    2    3 1
   5    2   37 1
   6    2   38 1
   7    3   14 1
   8    3   39 1
   9    3   40 1
  10    5   41 1
  11    6    7 1
  12    6   13 2
  13    6   14 am
  14    7    8 ar
  15    7   12 ar
  16    8    9 ar
  17    8   42 1
  18    9   10 ar
  19    9   43 1
  20   10   11 ar
  21   10   15 1
  22   11   12 ar
  23   11   44 1
  24   12   45 1
  25   14   46 1
  26   15   16 1
  27   15   32 1
  28   15   47 1
  29   16   18 1
  30   16   48 1
  31   17   18 ar
  32   17   22 ar
  33   17   49 1
  34   18   19 ar
  35   19   20 ar
  36   19   50 1
  37   20   21 ar
  38   20   51 1
  39   21   22 ar
  40   21   23 1
  41   23   24 1
  42   23   27 1
  43   24   25 2
  44   25   26 1
  45   25   52 1
  46   26   27 2
  47   26   28 1
  48   27   53 1
  49   28   29 1
  50   28   30 1
  51   28   31 1
  52   32   33 1
  53   32   36 1
  54   32   54 1
  55   33   34 1
  56   33   55 1
  57   33   56 1
  58   34   35 1
  59   34   57 1
  60   34   58 1
  61   35   36 1
  62   35   59 1
  63   35   60 1
  64   36   61 1
  65   36   62 1

#	End of record

