#	Name: ASD08150071
#	Creating user name:	WinNT
#	Creation time:	15. 06. 2019 21:15

#	Modifying user name:	WinNT
#	Modification time:	15. 06. 2019 21:15

#	Program:	/corina/corina34_cracker 3.40 0067  02.08.2006

@<TRIPOS>MOLECULE
ASD08150071
  76   79    0    0    0
SMALL
NO_CHARGES


@<TRIPOS>ATOM
   1 O1             0.8422     2.3245     0.2753 O.3     
   2 C2             1.3932     1.1164     0.4376 C.2     
   3 N3             2.7102     1.1498     0.6828 N.am    
   4 C4             3.1562     2.5515     0.6977 C.3     
   5 C5             1.8681     3.3493     0.4173 C.3     
   6 O6             0.7575     0.0831     0.3697 O.2     
   7 C7             4.1911     2.7979    -0.4018 C.3     
   8 C8             3.5663    -0.0189     0.9004 C.3     
   9 C9             3.7007    -0.2748     2.3794 C.ar    
  10 C10            2.7432    -1.0219     3.0404 C.ar    
  11 C11            2.8641    -1.2579     4.3961 C.ar    
  12 C12            3.9473    -0.7445     5.0945 C.ar    
  13 C13            4.9067     0.0048     4.4290 C.ar    
  14 C14            4.7841     0.2332     3.0721 C.ar    
  15 O15            4.0682    -0.9749     6.4284 O.3     
  16 C16            5.2090    -0.4156     7.0825 C.3     
  17 C17            2.0061     4.1531    -0.8772 C.3     
  18 C18            0.7257     4.9551    -1.1186 C.3     
  19 C19            0.9097     5.8531    -2.3435 C.3     
  20 O20           -0.3629     4.0576    -1.3451 O.3     
  21 Si21          -1.7567     4.5114    -0.6299 Si      
  22 C22           -3.0594     3.2042    -0.9192 C.ar    
  23 C23           -3.8360     2.7575     0.1335 C.ar    
  24 C24           -4.8000     1.7901    -0.0805 C.ar    
  25 C25           -4.9877     1.2698    -1.3474 C.ar    
  26 C26           -4.2117     1.7172    -2.4003 C.ar    
  27 C27           -3.2507     2.6877    -2.1871 C.ar    
  28 C28           -1.4768     4.7161     1.2056 C.ar    
  29 C29           -1.7889     3.6847     2.0716 C.ar    
  30 C30           -1.5818     3.8362     3.4299 C.ar    
  31 C31           -1.0622     5.0188     3.9222 C.ar    
  32 C32           -0.7493     6.0498     3.0562 C.ar    
  33 C33           -0.9523     5.8967     1.6974 C.ar    
  34 C34           -2.3287     6.1293    -1.3551 C.3     
  35 C35           -2.2254     6.0694    -2.8804 C.3     
  36 C36           -3.7826     6.3833    -0.9519 C.3     
  37 C37           -1.4478     7.2640    -0.8284 C.3     
  38 H38            3.5637     2.8132     1.6742 H       
  39 H39            1.6368     4.0081     1.2544 H       
  40 H40            3.7819     2.4857    -1.3626 H       
  41 H41            4.4360     3.8594    -0.4389 H       
  42 H42            5.0928     2.2243    -0.1873 H       
  43 H43            3.1209    -0.8901     0.4199 H       
  44 H44            4.5515     0.1677     0.4730 H       
  45 H45            1.8999    -1.4210     2.4963 H       
  46 H46            2.1157    -1.8412     4.9120 H       
  47 H47            5.7508     0.4055     4.9705 H       
  48 H48            5.5332     0.8124     2.5526 H       
  49 H49            6.1179    -0.8152     6.6327 H       
  50 H50            5.1956     0.6687     6.9726 H       
  51 H51            5.1837    -0.6739     8.1412 H       
  52 H52            2.8518     4.8356    -0.7927 H       
  53 H53            2.1710     3.4719    -1.7120 H       
  54 H54            0.5128     5.5713    -0.2450 H       
  55 H55            0.0639     6.5360    -2.4237 H       
  56 H56            1.8309     6.4264    -2.2387 H       
  57 H57            0.9654     5.2368    -3.2408 H       
  58 H58           -3.6893     3.1639     1.1233 H       
  59 H59           -5.4062     1.4405     0.7421 H       
  60 H60           -5.7404     0.5135    -1.5145 H       
  61 H61           -4.3582     1.3105    -3.3900 H       
  62 H62           -2.6470     3.0399    -3.0104 H       
  63 H63           -2.1948     2.7608     1.6870 H       
  64 H64           -1.8263     3.0307     4.1066 H       
  65 H65           -0.9011     5.1374     4.9835 H       
  66 H66           -0.3437     6.9739     3.4408 H       
  67 H67           -0.7044     6.7008     1.0204 H       
  68 H68           -2.9176     5.3189    -3.2622 H       
  69 H69           -2.4776     7.0432    -3.3002 H       
  70 H70           -1.2076     5.8035    -3.1655 H       
  71 H71           -3.8562     6.4260     0.1348 H       
  72 H72           -4.1173     7.3299    -1.3762 H       
  73 H73           -4.4102     5.5749    -1.3271 H       
  74 H74           -0.4000     6.9712    -0.8946 H       
  75 H75           -1.6131     8.1600    -1.4268 H       
  76 H76           -1.7027     7.4693     0.2112 H       
@<TRIPOS>BOND
   1    1    2 1
   2    1    5 1
   3    2    3 am
   4    2    6 2
   5    3    4 1
   6    3    8 1
   7    4    5 1
   8    4    7 1
   9    4   38 1
  10    5   17 1
  11    5   39 1
  12    7   40 1
  13    7   41 1
  14    7   42 1
  15    8    9 1
  16    8   43 1
  17    8   44 1
  18    9   10 ar
  19    9   14 ar
  20   10   11 ar
  21   10   45 1
  22   11   12 ar
  23   11   46 1
  24   12   13 ar
  25   12   15 1
  26   13   14 ar
  27   13   47 1
  28   14   48 1
  29   15   16 1
  30   16   49 1
  31   16   50 1
  32   16   51 1
  33   17   18 1
  34   17   52 1
  35   17   53 1
  36   18   19 1
  37   18   20 1
  38   18   54 1
  39   19   55 1
  40   19   56 1
  41   19   57 1
  42   20   21 1
  43   21   22 1
  44   21   28 1
  45   21   34 1
  46   22   23 ar
  47   22   27 ar
  48   23   24 ar
  49   23   58 1
  50   24   25 ar
  51   24   59 1
  52   25   26 ar
  53   25   60 1
  54   26   27 ar
  55   26   61 1
  56   27   62 1
  57   28   29 ar
  58   28   33 ar
  59   29   30 ar
  60   29   63 1
  61   30   31 ar
  62   30   64 1
  63   31   32 ar
  64   31   65 1
  65   32   33 ar
  66   32   66 1
  67   33   67 1
  68   34   35 1
  69   34   37 1
  70   34   36 1
  71   35   68 1
  72   35   69 1
  73   35   70 1
  74   36   71 1
  75   36   72 1
  76   36   73 1
  77   37   74 1
  78   37   75 1
  79   37   76 1

#	End of record

