#	Name: ASD02030732
#	Creating user name:	WinNT
#	Creation time:	15. 06. 2019 20:16

#	Modifying user name:	WinNT
#	Modification time:	15. 06. 2019 20:16

#	Program:	/corina/corina34_cracker 3.40 0067  02.08.2006

@<TRIPOS>MOLECULE
ASD02030732
  30   32    0    0    0
SMALL
NO_CHARGES


@<TRIPOS>ATOM
   1 N1            -0.0169     1.3957     0.0097 N.2     
   2 N2             0.0021    -0.0041     0.0020 N.am    
   3 C3             1.1646    -0.6797    -0.0123 C.2     
   4 N4             2.3448    -0.0325    -0.0200 N.am    
   5 C5             2.3757     1.3164    -0.0131 C.2     
   6 C6             1.1074     2.0610     0.0026 C.2     
   7 O7             1.1494    -1.8958    -0.0178 O.2     
   8 O8             3.4386     1.9089    -0.0192 O.2     
   9 C9            -1.2627    -0.7434     0.0101 C.3     
  10 C10           -3.3265     0.7632     4.2503 C.ar    
  11 N11           -3.5389     1.9306     3.6895 N.ar    
  12 C12           -3.1849     2.2023     2.4407 C.ar    
  13 C13           -2.5719     1.2786     1.6500 C.ar    
  14 C14           -2.3098     0.0025     2.1814 C.ar    
  15 C15           -1.6828    -1.0045     1.4336 C.ar    
  16 C16           -1.4568    -2.2207     2.0039 C.ar    
  17 C17           -1.8392    -2.4796     3.3189 C.ar    
  18 C18           -2.4502    -1.5254     4.0743 C.ar    
  19 C19           -2.6997    -0.2599     3.5205 C.ar    
  20 O20            1.1051     3.4197     0.0094 O.3     
  21 H21            3.1737    -0.5362    -0.0303 H       
  22 H22           -2.0303    -0.1556    -0.4933 H       
  23 H23           -1.1322    -1.6923    -0.5101 H       
  24 H24           -3.6291     0.5911     5.2726 H       
  25 H25           -3.3889     3.1839     2.0393 H       
  26 H26           -2.2926     1.5206     0.6352 H       
  27 H27           -0.9742    -2.9966     1.4280 H       
  28 H28           -1.6480    -3.4531     3.7458 H       
  29 H29           -2.7410    -1.7409     5.0918 H       
  30 H30            0.2211     3.8114     0.0197 H       
@<TRIPOS>BOND
   1    1    2 1
   2    1    6 2
   3    2    3 am
   4    2    9 1
   5    3    4 am
   6    3    7 2
   7    4    5 am
   8    4   21 1
   9    5    6 1
  10    5    8 2
  11    6   20 1
  12    9   15 1
  13    9   22 1
  14    9   23 1
  15   10   11 ar
  16   10   19 ar
  17   10   24 1
  18   11   12 ar
  19   12   13 ar
  20   12   25 1
  21   13   14 ar
  22   13   26 1
  23   14   15 ar
  24   14   19 ar
  25   15   16 ar
  26   16   17 ar
  27   16   27 1
  28   17   18 ar
  29   17   28 1
  30   18   19 ar
  31   18   29 1
  32   20   30 1

#	End of record

