#	Name: ASD05430397
#	Creating user name:	WinNT
#	Creation time:	15. 06. 2019 21:00

#	Modifying user name:	WinNT
#	Modification time:	15. 06. 2019 21:00

#	Program:	/corina/corina34_cracker 3.40 0067  02.08.2006

@<TRIPOS>MOLECULE
ASD05430397
  57   60    0    0    0
SMALL
NO_CHARGES


@<TRIPOS>ATOM
   1 C1            -0.0168     1.3911     0.0097 C.ar    
   2 C2             0.0021    -0.0041     0.0020 C.ar    
   3 C3            -1.1897    -0.7190     0.0091 C.ar    
   4 C4            -2.3954    -0.0542     0.0237 C.ar    
   5 C5            -2.4227     1.3458     0.0320 C.ar    
   6 C6            -1.2220     2.0655     0.0306 C.ar    
   7 C7            -4.8671     1.3600     0.0539 C.2     
   8 C8            -3.7079     2.0574     0.0475 C.2     
   9 C9            -6.1051     2.0455     0.0689 C.2     
  10 O10            1.1512     2.0867     0.0023 O.3     
  11 C11            1.0572     3.5126     0.0108 C.3     
  12 C12            1.5998    -1.7059     0.8223 C.2     
  13 N13            1.2247    -0.6855    -0.0133 N.pl3   
  14 C14            2.8456    -2.0675     0.4614 C.2     
  15 N15            3.2259    -1.2928    -0.5656 N.2     
  16 C16            2.2640    -0.4611    -0.8593 C.2     
  17 C17            3.6704    -3.1545     1.1011 C.3     
  18 C18           -8.3376     2.1437    -1.9697 C.ar    
  19 C19           -9.3487     2.7355    -2.7036 C.ar    
  20 C20           -8.0703     2.4334    -4.7070 C.ar    
  21 C21           -7.0579     1.8415    -3.9708 C.ar    
  22 C22           -7.1929     1.6967    -2.6030 C.ar    
  23 C23           -9.2163     2.8806    -4.0716 C.ar    
  24 F24           -7.9392     2.5759    -6.0440 F       
  25 N25           -7.2826     1.3368     0.0754 N.pl3   
  26 C26           -7.3440    -0.0240     0.6145 C.3     
  27 C27           -8.4807     1.9912    -0.4773 C.3     
  28 C28           -8.5980     3.3738     0.1786 C.3     
  29 C29           -7.2591     4.0619     0.1126 C.2     
  30 N30           -6.1285     3.3724     0.0823 N.2     
  31 O31           -7.2154     5.2766     0.0909 O.2     
  32 C32           -9.7226     1.1572    -0.1562 C.3     
  33 H33           -1.1701    -1.7988     0.0028 H       
  34 H34           -3.3200    -0.6125     0.0285 H       
  35 H35           -1.2380     3.1453     0.0372 H       
  36 H36           -4.8478     0.2802     0.0476 H       
  37 H37           -3.7272     3.1372     0.0539 H       
  38 H38            0.5121     3.8461    -0.8722 H       
  39 H39            0.5291     3.8365     0.9076 H       
  40 H40            2.0587     3.9428     0.0036 H       
  41 H41            1.0108    -2.1342     1.6198 H       
  42 H42            2.2897     0.2812    -1.6434 H       
  43 H43            3.4794    -4.1009     0.5952 H       
  44 H44            4.7282    -2.9048     1.0174 H       
  45 H45            3.4003    -3.2439     2.1533 H       
  46 H46          -10.2425     3.0843    -2.2078 H       
  47 H47           -6.1632     1.4932    -4.4652 H       
  48 H48           -6.4037     1.2345    -2.0287 H       
  49 H49          -10.0066     3.3424    -4.6448 H       
  50 H50           -6.3569    -0.3186     0.9708 H       
  51 H51           -8.0531    -0.0554     1.4417 H       
  52 H52           -7.6677    -0.7105    -0.1678 H       
  53 H53           -9.3405     3.9684    -0.3538 H       
  54 H54           -8.8985     3.2593     1.2201 H       
  55 H55           -9.8289     1.0651     0.9247 H       
  56 H56          -10.6053     1.6467    -0.5677 H       
  57 H57           -9.6183     0.1657    -0.5968 H       
@<TRIPOS>BOND
   1    1    2 ar
   2    1   10 1
   3    1    6 ar
   4    2    3 ar
   5    2   13 1
   6    3    4 ar
   7    3   33 1
   8    4    5 ar
   9    4   34 1
  10    5    6 ar
  11    5    8 1
  12    6   35 1
  13    7    8 2
  14    7    9 1
  15    7   36 1
  16    8   37 1
  17    9   25 1
  18    9   30 2
  19   10   11 1
  20   11   38 1
  21   11   39 1
  22   11   40 1
  23   12   13 1
  24   12   14 2
  25   12   41 1
  26   13   16 1
  27   14   15 1
  28   14   17 1
  29   15   16 2
  30   16   42 1
  31   17   43 1
  32   17   44 1
  33   17   45 1
  34   18   19 ar
  35   18   22 ar
  36   18   27 1
  37   19   23 ar
  38   19   46 1
  39   20   21 ar
  40   20   24 1
  41   20   23 ar
  42   21   22 ar
  43   21   47 1
  44   22   48 1
  45   23   49 1
  46   25   26 1
  47   25   27 1
  48   26   50 1
  49   26   51 1
  50   26   52 1
  51   27   28 1
  52   27   32 1
  53   28   29 1
  54   28   53 1
  55   28   54 1
  56   29   30 1
  57   29   31 2
  58   32   55 1
  59   32   56 1
  60   32   57 1

#	End of record

