#	Name: ASD06610096
#	Creating user name:	WinNT
#	Creation time:	15. 06. 2019 21:07

#	Modifying user name:	WinNT
#	Modification time:	15. 06. 2019 21:07

#	Program:	/corina/corina34_cracker 3.40 0067  02.08.2006

@<TRIPOS>MOLECULE
ASD06610096
 321  322    0    0    0
SMALL
NO_CHARGES


@<TRIPOS>ATOM
   1 C1             1.2812    -0.8581    -7.4107 C.2     
   2 O2             1.2913    -2.0614    -7.2590 O.2     
   3 N3             3.6038    -1.1207    -8.0628 N.am    
   4 C4             2.5273    -0.1460    -7.8702 C.3     
   5 C5             2.2465     0.5716    -9.1920 C.3     
   6 C6             3.4527     1.3831    -9.5891 C.2     
   7 C7             4.1109     1.3007   -10.7611 C.2     
   8 N8             5.1350     2.2073   -10.7046 N.pl3   
   9 C9             5.0668     2.8124    -9.4993 C.2     
  10 N10            4.0552     2.3180    -8.8396 N.2     
  11 C11           -2.2693    -0.0392    -7.1160 C.2     
  12 O12           -2.1319     1.0148    -7.7000 O.2     
  13 N13            0.1538    -0.1585    -7.1736 N.am    
  14 C14           -1.0592    -0.8515    -6.7327 C.3     
  15 C15           -1.0229    -1.0265    -5.2131 C.3     
  16 C16            0.1161    -1.9398    -4.8397 C.ar    
  17 C17            1.3669    -1.4131    -4.5770 C.ar    
  18 C18            2.4117    -2.2509    -4.2345 C.ar    
  19 C19            2.2056    -3.6155    -4.1543 C.ar    
  20 C20            0.9546    -4.1421    -4.4161 C.ar    
  21 C21           -0.0912    -3.3039    -4.7544 C.ar    
  22 C22           -5.8225    -0.0271    -6.2573 C.2     
  23 O23           -5.6690    -0.8434    -5.3735 O.2     
  24 N24           -3.5041    -0.4841    -6.8099 N.am    
  25 C25           -4.6805     0.3056    -7.1825 C.3     
  26 C26           -5.0791    -0.0219    -8.6229 C.3     
  27 C27           -3.9698     0.4306    -9.5745 C.3     
  28 C28           -4.3685     0.1032   -11.0149 C.3     
  29 N29           -3.3063     0.5364   -11.9261 N.pl3   
  30 C30           -3.4421     0.3450   -13.2808 C.2     
  31 N31           -2.4971     0.7304   -14.0914 N.2     
  32 N32           -4.5748    -0.2531   -13.7803 N.pl3   
  33 C33           -9.4321     0.5483    -6.2039 C.2     
  34 O34           -9.4361     0.9817    -7.3366 O.2     
  35 N35           -7.0145     0.5826    -6.4118 N.am    
  36 C36           -8.1248     0.2592    -5.5123 C.3     
  37 C37           -8.0190     1.1102    -4.2452 C.3     
  38 C38           -6.7518     0.7274    -3.4780 C.3     
  39 C39           -6.6461     1.5784    -2.2109 C.3     
  40 C40           -5.3789     1.1955    -1.4438 C.3     
  41 N41           -5.2774     2.0126    -0.2272 N.3     
  42 C42          -12.9332     0.8743    -5.2045 C.2     
  43 O43          -12.6580     0.8347    -4.0240 O.2     
  44 N44          -10.5969     0.3251    -5.5637 N.am    
  45 C45          -11.8679     0.6061    -6.2360 C.3     
  46 C46          -12.2729    -0.6001    -7.0857 C.3     
  47 C47          -11.2547    -0.7964    -8.2107 C.3     
  48 C48          -11.6536    -1.9844    -9.0476 C.2     
  49 O49          -12.6501    -2.6099    -8.7726 O.2     
  50 O50          -10.9019    -2.3478   -10.0987 O.3     
  51 C51          -16.5814     1.1046    -5.1736 C.2     
  52 O52          -16.6722     0.7023    -6.3141 O.2     
  53 N53          -14.1919     1.1583    -5.5938 N.am    
  54 C54          -15.2276     1.4191    -4.5910 C.3     
  55 C55          -15.1793     2.8918    -4.1790 C.3     
  56 C56          -13.8521     3.1811    -3.4749 C.3     
  57 C57          -13.8038     4.6538    -3.0629 C.3     
  58 N58          -12.5330     4.9308    -2.3886 N.pl3   
  59 C59          -12.2620     6.1967    -1.9260 C.2     
  60 N60          -11.1314     6.4432    -1.3261 N.2     
  61 N61          -13.1835     7.2027    -2.0960 N.pl3   
  62 C62          -19.9947     2.0341    -4.4140 C.2     
  63 O63          -19.6322     2.7980    -3.5446 O.2     
  64 N64          -17.6913     1.2705    -4.4272 N.am    
  65 C65          -19.0132     1.0675    -5.0251 C.3     
  66 C66          -19.4777    -0.3662    -4.7610 C.3     
  67 C67          -19.3489    -0.6773    -3.2685 C.3     
  68 C68          -20.3552     0.1661    -2.4831 C.3     
  69 C69          -18.6096    -1.3391    -5.5615 C.3     
  70 C70          -23.6356     2.3565    -4.3602 C.2     
  71 O71          -23.7919     1.3255    -4.9795 O.2     
  72 N72          -21.2754     2.0496    -4.8337 N.am    
  73 C73          -22.2511     2.9225    -4.1762 C.3     
  74 C74          -22.1848     4.3196    -4.7963 C.3     
  75 C75          -20.8196     4.9442    -4.5013 C.3     
  76 C76          -20.7543     6.3204    -5.1120 C.2     
  77 O77          -21.7024     6.7568    -5.7207 O.2     
  78 O78          -19.6428     7.0613    -4.9797 O.3     
  79 C79          -27.0498     3.3436    -3.3390 C.2     
  80 O80          -26.6775     4.3446    -2.7642 O.2     
  81 N81          -24.7002     2.9960    -3.8365 N.am    
  82 C82          -26.0461     2.4457    -4.0153 C.3     
  83 C83          -30.5692     3.0356    -2.3661 C.2     
  84 O84          -30.7660     2.0117    -2.9856 O.2     
  85 N85          -28.3612     3.0343    -3.3729 N.am    
  86 C86          -29.3247     3.8452    -2.6244 C.3     
  87 C87          -29.6855     5.0893    -3.4386 C.3     
  88 C88          -30.6993     5.9312    -2.6613 C.3     
  89 C89          -30.0327     6.5050    -1.4094 C.3     
  90 C90          -31.1955     7.0770    -3.5455 C.3     
  91 C91          -33.7589     3.6129    -0.6763 C.2     
  92 O92          -33.5008     4.7794    -0.4672 O.2     
  93 N93          -31.4635     3.4494    -1.4466 N.am    
  94 C94          -32.7034     2.6970    -1.2403 C.3     
  95 C95          -32.4471     1.5501    -0.2606 C.3     
  96 C96          -31.4685     0.5541    -0.8862 C.3     
  97 C97          -31.2122    -0.5928     0.0934 C.3     
  98 N98          -30.2752    -1.5465    -0.5056 N.pl3   
  99 C99          -29.8932    -2.6666     0.1941 C.2     
 100 N100         -30.3646    -2.8801     1.3904 N.2     
 101 N101         -29.0139    -3.5616    -0.3681 N.pl3   
 102 C102         -37.0278     3.2145     0.9107 C.2     
 103 O103         -36.9042     2.0107     0.9912 O.2     
 104 N104         -34.9897     3.1359    -0.4042 N.am    
 105 C105         -36.0158     4.0263     0.1441 C.3     
 106 C106         -36.7146     4.7643    -0.9995 C.3     
 107 C107         -35.7129     5.6842    -1.7004 C.3     
 108 C108         -36.4118     6.4222    -2.8440 C.3     
 109 C109         -35.4100     7.3421    -3.5448 C.3     
 110 N110         -36.0810     8.0506    -4.6429 N.3     
 111 C111         -40.3677     3.7749     2.2871 C.2     
 112 O112         -40.4717     4.8538     1.7430 O.2     
 113 N113         -38.0703     3.8262     1.5070 N.am    
 114 C114         -39.0541     3.0370     2.2522 C.3     
 115 C115         -38.5545     2.8173     3.6816 C.3     
 116 C116         -37.2869     1.9611     3.6528 C.3     
 117 C117         -36.7872     1.7413     5.0821 C.3     
 118 N118         -35.5734     0.9215     5.0545 N.pl3   
 119 C119         -34.9403     0.5910     6.2293 C.2     
 120 N120         -35.4200     1.0071     7.3676 N.2     
 121 N121         -33.8012    -0.1783     6.2034 N.pl3   
 122 C122         -42.6987     4.9338     4.1012 C.2     
 123 O123         -41.7282     5.0241     4.8152 O.2     
 124 N124         -41.4267     3.2359     2.9229 N.am    
 125 C125         -42.7036     3.9533     2.9568 C.3     
 126 C126         -43.8456     2.9530     3.1471 C.3     
 127 C127         -43.9290     2.0357     1.9255 C.3     
 128 C128         -45.0710     1.0354     2.1158 C.3     
 129 N129         -45.1509     0.1571     0.9460 N.pl3   
 130 C130         -46.1080    -0.8283     0.8904 C.2     
 131 N131         -46.1790    -1.6098    -0.1504 N.2     
 132 N132         -46.9902    -0.9894     1.9324 N.pl3   
 133 O133         -43.7726     5.7068     4.3273 O.3     
 134 C134           4.8906    -0.7297    -7.9749 C.2     
 135 O135           5.1573     0.4291    -7.7363 O.2     
 136 C136          23.3399    -3.9720    -8.5232 C.3     
 137 C137          22.2155    -2.9540    -8.3220 C.3     
 138 C138          20.8625    -3.6521    -8.4732 C.3     
 139 C139          19.7381    -2.6341    -8.2720 C.3     
 140 C140          18.3851    -3.3321    -8.4231 C.3     
 141 C141          17.2607    -2.3141    -8.2220 C.3     
 142 C142          15.9077    -3.0122    -8.3731 C.3     
 143 C143          14.7833    -1.9942    -8.1720 C.3     
 144 C144          13.4303    -2.6922    -8.3231 C.3     
 145 C145          12.3059    -1.6742    -8.1219 C.3     
 146 C146          10.9529    -2.3723    -8.2731 C.3     
 147 C147           9.8285    -1.3543    -8.0719 C.3     
 148 C148           8.4755    -2.0523    -8.2231 C.3     
 149 C149           7.3511    -1.0344    -8.0219 C.3     
 150 C150           5.9981    -1.7324    -8.1730 C.3     
 151 H151           3.3905    -2.0476    -8.2537 H       
 152 H152           2.8276     0.5830    -7.1176 H       
 153 H153           2.0327    -0.1646    -9.9669 H       
 154 H154           1.3878     1.2321    -9.0716 H       
 155 H155           3.8762     0.6452   -11.5866 H       
 156 H156           5.7878     2.3823   -11.4005 H       
 157 H157           5.7360     3.5812    -9.1422 H       
 158 H158           0.1457     0.8038    -7.2949 H       
 159 H159          -1.1125    -1.8301    -7.2099 H       
 160 H160          -0.8804    -0.0554    -4.7389 H       
 161 H161          -1.9634    -1.4615    -4.8749 H       
 162 H162           1.5279    -0.3470    -4.6397 H       
 163 H163           3.3890    -1.8394    -4.0300 H       
 164 H164           3.0221    -4.2701    -3.8874 H       
 165 H165           0.7937    -5.2083    -4.3538 H       
 166 H166          -1.0695    -3.7150    -4.9553 H       
 167 H167          -3.6140    -1.3271    -6.3428 H       
 168 H168          -4.4457     1.3670    -7.1029 H       
 169 H169          -5.2278    -1.0970    -8.7233 H       
 170 H170          -6.0048     0.4976    -8.8708 H       
 171 H171          -3.8211     1.5058    -9.4742 H       
 172 H172          -3.0442    -0.0889    -9.3267 H       
 173 H173          -4.5171    -0.9720   -11.1153 H       
 174 H174          -5.2941     0.6226   -11.2628 H       
 175 H175          -2.5071     0.9584   -11.5737 H       
 176 H176          -2.5929     0.5953   -15.0472 H       
 177 H177          -5.2780    -0.5400   -13.1770 H       
 178 H178          -4.6706    -0.3882   -14.7360 H       
 179 H179          -7.1374     1.2355    -7.1186 H       
 180 H180          -8.0805    -0.7967    -5.2456 H       
 181 H181          -7.9739     2.1645    -4.5183 H       
 182 H182          -8.8916     0.9349    -3.6160 H       
 183 H183          -6.7970    -0.3269    -3.2049 H       
 184 H184          -5.8792     0.9026    -4.1073 H       
 185 H185          -6.6009     2.6326    -2.4840 H       
 186 H186          -7.5187     1.4031    -1.5817 H       
 187 H187          -5.4241     0.1413    -1.1707 H       
 188 H188          -4.5063     1.3708    -2.0730 H       
 189 H189          -4.4479     1.7785     0.2975 H       
 190 H190          -5.2988     2.9965    -0.4496 H       
 191 H191         -10.5937    -0.0216    -4.6577 H       
 192 H192         -11.7543     1.4804    -6.8769 H       
 193 H193         -12.3000    -1.4924    -6.4603 H       
 194 H194         -13.2598    -0.4271    -7.5150 H       
 195 H195         -11.2275     0.0959    -8.8360 H       
 196 H196         -10.2678    -0.9694    -7.7814 H       
 197 H197         -11.1980    -3.1162   -10.6055 H       
 198 H198         -14.4121     1.1900    -6.5380 H       
 199 H199         -15.0534     0.7914    -3.7171 H       
 200 H200         -15.2647     3.5201    -5.0656 H       
 201 H201         -16.0049     3.1066    -3.5006 H       
 202 H202         -13.7667     2.5528    -2.5883 H       
 203 H203         -13.0265     2.9663    -4.1533 H       
 204 H204         -13.8892     5.2821    -3.9495 H       
 205 H205         -14.6294     4.8686    -2.3844 H       
 206 H206         -11.8828     4.2210    -2.2687 H       
 207 H207         -10.9401     7.3364    -0.9996 H       
 208 H208         -14.0249     7.0193    -2.5424 H       
 209 H209         -12.9923     8.0959    -1.7696 H       
 210 H210         -17.6148     1.5243    -3.4941 H       
 211 H211         -18.9560     1.2387    -6.1000 H       
 212 H212         -20.5187    -0.4728    -5.0659 H       
 213 H213         -19.5507    -1.7350    -3.0991 H       
 214 H214         -18.3384    -0.4421    -2.9342 H       
 215 H215         -20.0487     1.2119    -2.5057 H       
 216 H216         -21.3426     0.0671    -2.9340 H       
 217 H217         -20.3911    -0.1797    -1.4500 H       
 218 H218         -17.5865    -1.3055    -5.1873 H       
 219 H219         -19.0029    -2.3500    -5.4539 H       
 220 H220         -18.6211    -1.0549    -6.6138 H       
 221 H221         -21.5511     1.4828    -5.5710 H       
 222 H222         -22.0230     2.9859    -3.1123 H       
 223 H223         -22.3251     4.2456    -5.8747 H       
 224 H224         -22.9698     4.9441    -4.3697 H       
 225 H225         -20.6793     5.0182    -3.4229 H       
 226 H226         -20.0346     4.3198    -4.9278 H       
 227 H227         -19.6481     7.9375    -5.3887 H       
 228 H228         -24.5752     3.8205    -3.3412 H       
 229 H229         -26.0933     1.4504    -3.5736 H       
 230 H230         -26.2743     2.3823    -5.0793 H       
 231 H231         -28.6670     2.2747    -3.8929 H       
 232 H232         -28.8843     4.1479    -1.6744 H       
 233 H233         -28.7865     5.6786    -3.6194 H       
 234 H234         -30.1192     4.7867    -4.3917 H       
 235 H235         -31.5431     5.3059    -2.3695 H       
 236 H236         -29.2335     7.1856    -1.7028 H       
 237 H237         -30.7725     7.0461    -0.8195 H       
 238 H238         -29.6173     5.6920    -0.8140 H       
 239 H239         -31.6704     6.6683    -4.4374 H       
 240 H240         -31.9178     7.6768    -2.9918 H       
 241 H241         -30.3517     7.7023    -3.8374 H       
 242 H242         -31.2861     4.2454    -0.9214 H       
 243 H243         -33.0453     2.2918    -2.1927 H       
 244 H244         -32.0215     1.9476     0.6608 H       
 245 H245         -33.3871     1.0451    -0.0384 H       
 246 H246         -31.8941     0.1566    -1.8076 H       
 247 H247         -30.5285     1.0591    -1.1085 H       
 248 H248         -30.7866    -0.1953     1.0148 H       
 249 H249         -32.1522    -1.0978     0.3157 H       
 250 H250         -29.9244    -1.3877    -1.3959 H       
 251 H251         -30.0951    -3.6704     1.8840 H       
 252 H252         -28.6631    -3.4028    -1.2584 H       
 253 H253         -28.7444    -4.3519     0.1255 H       
 254 H254         -35.1961     2.2030    -0.5714 H       
 255 H255         -35.5493     4.7502     0.8122 H       
 256 H256         -37.1047     4.0400    -1.7146 H       
 257 H257         -37.5361     5.3589    -0.5999 H       
 258 H258         -35.3228     6.4085    -0.9853 H       
 259 H259         -34.8914     5.0895    -2.1000 H       
 260 H260         -36.8019     5.6979    -3.5591 H       
 261 H261         -37.2332     7.0168    -2.4444 H       
 262 H262         -35.0199     8.0664    -2.8298 H       
 263 H263         -34.5886     6.7474    -3.9445 H       
 264 H264         -35.4399     8.6651    -5.1219 H       
 265 H265         -36.5072     7.4002    -5.2859 H       
 266 H266         -38.1692     4.7890     1.4426 H       
 267 H267         -39.1920     2.0727     1.7633 H       
 268 H268         -38.3321     3.7805     4.1408 H       
 269 H269         -39.3242     2.3075     4.2612 H       
 270 H270         -37.5093     0.9979     3.1935 H       
 271 H271         -36.5172     2.4708     3.0732 H       
 272 H272         -36.5648     2.7045     5.5413 H       
 273 H273         -37.5569     1.2316     5.6617 H       
 274 H274         -35.2165     0.6119     4.2074 H       
 275 H275         -34.9732     0.7740     8.1964 H       
 276 H276         -33.4442    -0.4880     5.3563 H       
 277 H277         -33.3545    -0.4115     7.0322 H       
 278 H278         -41.3435     2.3730     3.3581 H       
 279 H279         -42.8436     4.4904     2.0187 H       
 280 H280         -43.6596     2.3545     4.0389 H       
 281 H281         -44.7859     3.4925     3.2613 H       
 282 H282         -44.1151     2.6342     1.0337 H       
 283 H283         -42.9888     1.4962     1.8113 H       
 284 H284         -44.8850     0.4369     3.0076 H       
 285 H285         -46.0113     1.5749     2.2299 H       
 286 H286         -44.5284     0.2707     0.2108 H       
 287 H287         -46.8543    -2.3050    -0.1897 H       
 288 H288         -46.9373    -0.4078     2.7069 H       
 289 H289         -47.6655    -1.6846     1.8932 H       
 290 H290         -43.7226     6.3205     5.0729 H       
 291 H291          23.2530    -4.7615    -7.7768 H       
 292 H292          23.2638    -4.4050    -9.5206 H       
 293 H293          24.3038    -3.4747    -8.4155 H       
 294 H294          22.2916    -2.5210    -7.3246 H       
 295 H295          22.3024    -2.1645    -9.0685 H       
 296 H296          20.7864    -4.0850    -9.4706 H       
 297 H297          20.7756    -4.4416    -7.7267 H       
 298 H298          19.8142    -2.2011    -7.2746 H       
 299 H299          19.8250    -1.8445    -9.0184 H       
 300 H300          18.3090    -3.7651    -9.4206 H       
 301 H301          18.2982    -4.1217    -7.6767 H       
 302 H302          17.3368    -1.8811    -7.2246 H       
 303 H303          17.3476    -1.5246    -8.9684 H       
 304 H304          15.8316    -3.4451    -9.3705 H       
 305 H305          15.8208    -3.8017    -7.6267 H       
 306 H306          14.8594    -1.5612    -7.1745 H       
 307 H307          14.8702    -1.2046    -8.9184 H       
 308 H308          13.3542    -3.1252    -9.3205 H       
 309 H309          13.3434    -3.4818    -7.5767 H       
 310 H310          12.3820    -1.2413    -7.1245 H       
 311 H311          12.3928    -0.8847    -8.8684 H       
 312 H312          10.8768    -2.8053    -9.2705 H       
 313 H313          10.8660    -3.1618    -7.5266 H       
 314 H314           9.9046    -0.9213    -7.0745 H       
 315 H315           9.9154    -0.5647    -8.8183 H       
 316 H316           8.3994    -2.4853    -9.2205 H       
 317 H317           8.3886    -2.8419    -7.4766 H       
 318 H318           7.4272    -0.6014    -7.0245 H       
 319 H319           7.4380    -0.2448    -8.7683 H       
 320 H320           5.9112    -2.5220    -7.4266 H       
 321 H321           5.9220    -2.1654    -9.1705 H       
@<TRIPOS>BOND
   1    1    2 2
   2    1    4 1
   3    1   13 am
   4    3  134 am
   5    3    4 1
   6    3  151 1
   7    4    5 1
   8    4  152 1
   9    5    6 1
  10    5  153 1
  11    5  154 1
  12    6    7 2
  13    6   10 1
  14    7    8 1
  15    7  155 1
  16    8    9 1
  17    8  156 1
  18    9   10 2
  19    9  157 1
  20   11   12 2
  21   11   14 1
  22   11   24 am
  23   13   14 1
  24   13  158 1
  25   14   15 1
  26   14  159 1
  27   15   16 1
  28   15  160 1
  29   15  161 1
  30   16   17 ar
  31   16   21 ar
  32   17   18 ar
  33   17  162 1
  34   18   19 ar
  35   18  163 1
  36   19   20 ar
  37   19  164 1
  38   20   21 ar
  39   20  165 1
  40   21  166 1
  41   22   23 2
  42   22   25 1
  43   22   35 am
  44   24   25 1
  45   24  167 1
  46   25   26 1
  47   25  168 1
  48   26   27 1
  49   26  169 1
  50   26  170 1
  51   27   28 1
  52   27  171 1
  53   27  172 1
  54   28   29 1
  55   28  173 1
  56   28  174 1
  57   29   30 1
  58   29  175 1
  59   30   31 2
  60   30   32 1
  61   31  176 1
  62   32  177 1
  63   32  178 1
  64   33   34 2
  65   33   36 1
  66   33   44 am
  67   35   36 1
  68   35  179 1
  69   36   37 1
  70   36  180 1
  71   37   38 1
  72   37  181 1
  73   37  182 1
  74   38   39 1
  75   38  183 1
  76   38  184 1
  77   39   40 1
  78   39  185 1
  79   39  186 1
  80   40   41 1
  81   40  187 1
  82   40  188 1
  83   41  189 1
  84   41  190 1
  85   42   43 2
  86   42   45 1
  87   42   53 am
  88   44   45 1
  89   44  191 1
  90   45   46 1
  91   45  192 1
  92   46   47 1
  93   46  193 1
  94   46  194 1
  95   47   48 1
  96   47  195 1
  97   47  196 1
  98   48   49 2
  99   48   50 1
 100   50  197 1
 101   51   52 2
 102   51   54 1
 103   51   64 am
 104   53   54 1
 105   53  198 1
 106   54   55 1
 107   54  199 1
 108   55   56 1
 109   55  200 1
 110   55  201 1
 111   56   57 1
 112   56  202 1
 113   56  203 1
 114   57   58 1
 115   57  204 1
 116   57  205 1
 117   58   59 1
 118   58  206 1
 119   59   60 2
 120   59   61 1
 121   60  207 1
 122   61  208 1
 123   61  209 1
 124   62   63 2
 125   62   65 1
 126   62   72 am
 127   64   65 1
 128   64  210 1
 129   65   66 1
 130   65  211 1
 131   66   67 1
 132   66   69 1
 133   66  212 1
 134   67   68 1
 135   67  213 1
 136   67  214 1
 137   68  215 1
 138   68  216 1
 139   68  217 1
 140   69  218 1
 141   69  219 1
 142   69  220 1
 143   70   71 2
 144   70   73 1
 145   70   81 am
 146   72   73 1
 147   72  221 1
 148   73   74 1
 149   73  222 1
 150   74   75 1
 151   74  223 1
 152   74  224 1
 153   75   76 1
 154   75  225 1
 155   75  226 1
 156   76   77 2
 157   76   78 1
 158   78  227 1
 159   79   80 2
 160   79   82 1
 161   79   85 am
 162   81   82 1
 163   81  228 1
 164   82  229 1
 165   82  230 1
 166   83   84 2
 167   83   86 1
 168   83   93 am
 169   85   86 1
 170   85  231 1
 171   86   87 1
 172   86  232 1
 173   87   88 1
 174   87  233 1
 175   87  234 1
 176   88   89 1
 177   88   90 1
 178   88  235 1
 179   89  236 1
 180   89  237 1
 181   89  238 1
 182   90  239 1
 183   90  240 1
 184   90  241 1
 185   91   92 2
 186   91   94 1
 187   91  104 am
 188   93   94 1
 189   93  242 1
 190   94   95 1
 191   94  243 1
 192   95   96 1
 193   95  244 1
 194   95  245 1
 195   96   97 1
 196   96  246 1
 197   96  247 1
 198   97   98 1
 199   97  248 1
 200   97  249 1
 201   98   99 1
 202   98  250 1
 203   99  100 2
 204   99  101 1
 205  100  251 1
 206  101  252 1
 207  101  253 1
 208  102  103 2
 209  102  105 1
 210  102  113 am
 211  104  105 1
 212  104  254 1
 213  105  106 1
 214  105  255 1
 215  106  107 1
 216  106  256 1
 217  106  257 1
 218  107  108 1
 219  107  258 1
 220  107  259 1
 221  108  109 1
 222  108  260 1
 223  108  261 1
 224  109  110 1
 225  109  262 1
 226  109  263 1
 227  110  264 1
 228  110  265 1
 229  111  112 2
 230  111  114 1
 231  111  124 am
 232  113  114 1
 233  113  266 1
 234  114  115 1
 235  114  267 1
 236  115  116 1
 237  115  268 1
 238  115  269 1
 239  116  117 1
 240  116  270 1
 241  116  271 1
 242  117  118 1
 243  117  272 1
 244  117  273 1
 245  118  119 1
 246  118  274 1
 247  119  120 2
 248  119  121 1
 249  120  275 1
 250  121  276 1
 251  121  277 1
 252  122  123 2
 253  122  125 1
 254  122  133 1
 255  124  125 1
 256  124  278 1
 257  125  126 1
 258  125  279 1
 259  126  127 1
 260  126  280 1
 261  126  281 1
 262  127  128 1
 263  127  282 1
 264  127  283 1
 265  128  129 1
 266  128  284 1
 267  128  285 1
 268  129  130 1
 269  129  286 1
 270  130  131 2
 271  130  132 1
 272  131  287 1
 273  132  288 1
 274  132  289 1
 275  133  290 1
 276  134  135 2
 277  134  150 1
 278  136  137 1
 279  136  291 1
 280  136  292 1
 281  136  293 1
 282  137  138 1
 283  137  294 1
 284  137  295 1
 285  138  139 1
 286  138  296 1
 287  138  297 1
 288  139  140 1
 289  139  298 1
 290  139  299 1
 291  140  141 1
 292  140  300 1
 293  140  301 1
 294  141  142 1
 295  141  302 1
 296  141  303 1
 297  142  143 1
 298  142  304 1
 299  142  305 1
 300  143  144 1
 301  143  306 1
 302  143  307 1
 303  144  145 1
 304  144  308 1
 305  144  309 1
 306  145  146 1
 307  145  310 1
 308  145  311 1
 309  146  147 1
 310  146  312 1
 311  146  313 1
 312  147  148 1
 313  147  314 1
 314  147  315 1
 315  148  149 1
 316  148  316 1
 317  148  317 1
 318  149  150 1
 319  149  318 1
 320  149  319 1
 321  150  320 1
 322  150  321 1

#	End of record

