#	Name: ASD06170041
#	Creating user name:	WinNT
#	Creation time:	15. 06. 2019 21:05

#	Modifying user name:	WinNT
#	Modification time:	15. 06. 2019 21:05

#	Program:	/corina/corina34_cracker 3.40 0067  02.08.2006

@<TRIPOS>MOLECULE
ASD06170041
  64   68    0    0    0
SMALL
NO_CHARGES


@<TRIPOS>ATOM
   1 N1             0.1056    -1.8118     1.1865 N.pl3   
   2 N2             0.0318    -0.7793     0.2469 N.am    
   3 C3             1.2859    -0.3876    -0.0603 C.2     
   4 C4             2.1934    -1.2278     0.7370 C.2     
   5 C5             1.3937    -2.0770     1.4766 C.2     
   6 C6             3.6603    -1.1745     0.7444 C.2     
   7 O7             4.2932    -1.9323     1.4558 O.2     
   8 N8             4.3063    -0.2861    -0.0366 N.am    
   9 O9             1.6039     0.4882    -0.8430 O.2     
  10 C10            1.8805    -3.1239     2.4451 C.3     
  11 C11           -1.0474    -2.4992     1.7733 C.3     
  12 C12            5.6995    -0.1691     0.0406 C.ar    
  13 C13            6.4802    -1.2967     0.2594 C.ar    
  14 C14            7.8554    -1.1801     0.3356 C.ar    
  15 C15            8.4556     0.0652     0.1931 C.ar    
  16 C16            7.6752     1.1903    -0.0248 C.ar    
  17 C17            6.3011     1.0734    -0.1072 C.ar    
  18 F18            8.6158    -2.2763     0.5488 F       
  19 O19            9.8086     0.1804     0.2680 O.3     
  20 N20           11.9971    -0.7187    -3.1103 N.ar    
  21 C21           10.6855    -0.7162    -3.1549 C.ar    
  22 C22            9.9152    -0.4179    -2.0381 C.ar    
  23 C23           10.5347    -0.1143    -0.8385 C.ar    
  24 C24           11.9473    -0.1204    -0.8022 C.ar    
  25 C25           12.6463     0.1767     0.3774 C.ar    
  26 C26           14.0112     0.1608     0.3760 C.ar    
  27 C27           14.7214    -0.1490    -0.7926 C.ar    
  28 C28           14.0661    -0.4414    -1.9539 C.ar    
  29 C29           12.6618    -0.4341    -1.9840 C.ar    
  30 O30           16.0800    -0.1579    -0.7689 O.3     
  31 C31           16.7481    -0.4809    -1.9902 C.3     
  32 O32           14.6888     0.4487     1.5192 O.3     
  33 C33           13.9083     0.7567     2.6759 C.3     
  34 C34           -1.1453    -0.2421    -0.2857 C.ar    
  35 C35           -1.7538    -0.8459    -1.3800 C.ar    
  36 C36           -2.9162    -0.3125    -1.9032 C.ar    
  37 C37           -3.4733     0.8210    -1.3394 C.ar    
  38 C38           -2.8699     1.4238    -0.2514 C.ar    
  39 C39           -1.7112     0.8919     0.2809 C.ar    
  40 Cl40          -1.0542    -2.2680    -2.0885 Cl      
  41 H41            3.8060     0.2721    -0.6523 H       
  42 H42            2.0271    -4.0665     1.9179 H       
  43 H43            2.8251    -2.8020     2.8836 H       
  44 H44            1.1414    -3.2603     3.2346 H       
  45 H45           -1.3089    -3.3601     1.1581 H       
  46 H46           -0.7971    -2.8344     2.7798 H       
  47 H47           -1.8943    -1.8144     1.8185 H       
  48 H48            6.0130    -2.2641     0.3704 H       
  49 H49            8.1421     2.1579    -0.1351 H       
  50 H50            5.6943     1.9496    -0.2818 H       
  51 H51           10.1913    -0.9520    -4.0858 H       
  52 H52            8.8373    -0.4232    -2.1056 H       
  53 H53           12.1071     0.4171     1.2818 H       
  54 H54           14.6258    -0.6776    -2.8469 H       
  55 H55           16.4733     0.2433    -2.7571 H       
  56 H56           17.8263    -0.4522    -1.8331 H       
  57 H57           16.4542    -1.4800    -2.3118 H       
  58 H58           14.5707     0.9664     3.5158 H       
  59 H59           13.2893     1.6310     2.4743 H       
  60 H60           13.2697    -0.0922     2.9200 H       
  61 H61           -3.3898    -0.7808    -2.7533 H       
  62 H62           -4.3816     1.2363    -1.7503 H       
  63 H63           -3.3075     2.3089     0.1861 H       
  64 H64           -1.2433     1.3608     1.1339 H       
@<TRIPOS>BOND
   1    1    2 1
   2    1    5 1
   3    1   11 1
   4    2    3 am
   5    2   34 1
   6    3    4 1
   7    3    9 2
   8    4    5 2
   9    4    6 1
  10    5   10 1
  11    6    7 2
  12    6    8 am
  13    8   12 1
  14    8   41 1
  15   10   42 1
  16   10   43 1
  17   10   44 1
  18   11   45 1
  19   11   46 1
  20   11   47 1
  21   12   13 ar
  22   12   17 ar
  23   13   14 ar
  24   13   48 1
  25   14   15 ar
  26   14   18 1
  27   15   16 ar
  28   15   19 1
  29   16   17 ar
  30   16   49 1
  31   17   50 1
  32   19   23 1
  33   20   21 ar
  34   20   29 ar
  35   21   22 ar
  36   21   51 1
  37   22   23 ar
  38   22   52 1
  39   23   24 ar
  40   24   25 ar
  41   24   29 ar
  42   25   26 ar
  43   25   53 1
  44   26   27 ar
  45   26   32 1
  46   27   28 ar
  47   27   30 1
  48   28   29 ar
  49   28   54 1
  50   30   31 1
  51   31   55 1
  52   31   56 1
  53   31   57 1
  54   32   33 1
  55   33   58 1
  56   33   59 1
  57   33   60 1
  58   34   35 ar
  59   34   39 ar
  60   35   36 ar
  61   35   40 1
  62   36   37 ar
  63   36   61 1
  64   37   38 ar
  65   37   62 1
  66   38   39 ar
  67   38   63 1
  68   39   64 1

#	End of record

