#	Name: ASD01881466
#	Creating user name:	WinNT
#	Creation time:	15. 06. 2019 19:42

#	Modifying user name:	WinNT
#	Modification time:	15. 06. 2019 19:42

#	Program:	/corina/corina34_cracker 3.40 0067  02.08.2006

@<TRIPOS>MOLECULE
ASD01881466
  54   58    0    0    0
SMALL
NO_CHARGES


@<TRIPOS>ATOM
   1 C1            -0.0187     1.5258     0.0104 C.3     
   2 C2             1.1221    10.0920     4.2836 C.ar    
   3 C3             1.3127     9.0045     3.4580 C.ar    
   4 C4            -0.0139    10.1718     5.0783 C.ar    
   5 C5            -0.9615     9.1573     5.0445 C.ar    
   6 C6            -0.7771     8.0670     4.2212 C.ar    
   7 C7             0.3628     7.9836     3.4216 C.ar    
   8 C8             0.5640     6.8136     2.5352 C.2     
   9 C9             0.5744     6.9719     1.1621 C.2     
  10 C10            0.7539     5.5230     3.0867 C.2     
  11 C11            0.9360     4.4612     2.2795 C.2     
  12 N12            0.9421     4.6074     0.9222 N.pl3   
  13 C13            0.7674     5.8432     0.3475 C.2     
  14 C14            1.0994     3.7357    -0.1122 C.2     
  15 N15            1.0158     4.4223    -1.2223 N.2     
  16 N16            0.8206     5.6676    -0.9640 N.2     
  17 C17            1.3287     2.2506     0.0015 C.3     
  18 O18           -0.1984    11.2447     5.8910 O.3     
  19 C19            0.0021    -0.0041     0.0020 C.3     
  20 C20           -0.3944     0.7486     1.2737 C.3     
  21 C21           -1.3888    11.2627     6.6814 C.3     
  22 C22           -1.4207    12.5193     7.5128 C.ar    
  23 C23           -2.0096    13.6671     7.0203 C.ar    
  24 N24           -2.0429    14.7723     7.7401 N.ar    
  25 C25           -1.5185    14.8266     8.9533 C.ar    
  26 C26           -0.9102    13.7100     9.5118 C.ar    
  27 C27           -0.8638    12.5336     8.7839 C.ar    
  28 O28           -1.5751    15.9843     9.6585 O.3     
  29 C29           -2.2134    17.0970     9.0289 C.3     
  30 C30            0.3810     8.3343     0.5478 C.3     
  31 F31            1.6293     8.9090     0.2855 F       
  32 F32           -0.3353     8.2096    -0.6474 F       
  33 F33           -0.3303     9.1492     1.4350 F       
  34 H34           -0.8227     2.0212    -0.5339 H       
  35 H35            1.8593    10.8806     4.3157 H       
  36 H36            2.1962     8.9432     2.8400 H       
  37 H37           -1.8437     9.2223     5.6640 H       
  38 H38           -1.5143     7.2781     4.1956 H       
  39 H39            0.7526     5.3902     4.1585 H       
  40 H40            1.0799     3.4817     2.7111 H       
  41 H41            1.8633     2.0353     0.9266 H       
  42 H42            1.9198     1.9082    -0.8479 H       
  43 H43           -0.7885    -0.5151    -0.5475 H       
  44 H44            0.9756    -0.4941    -0.0099 H       
  45 H45            0.3183     0.7538     2.0984 H       
  46 H46           -1.4458     0.7328     1.5608 H       
  47 H47           -2.2600    11.2380     6.0268 H       
  48 H48           -1.4025    10.3925     7.3376 H       
  49 H49           -2.4481    13.6602     6.0334 H       
  50 H50           -0.4825    13.7580    10.5023 H       
  51 H51           -0.3976    11.6492     9.1926 H       
  52 H52           -2.1899    17.9563     9.6991 H       
  53 H53           -1.6888    17.3420     8.1054 H       
  54 H54           -3.2484    16.8414     8.8019 H       
@<TRIPOS>BOND
   1    1   19 1
   2    1   17 1
   3    1   20 1
   4    1   34 1
   5    2    3 ar
   6    2    4 ar
   7    2   35 1
   8    3    7 ar
   9    3   36 1
  10    4    5 ar
  11    4   18 1
  12    5    6 ar
  13    5   37 1
  14    6    7 ar
  15    6   38 1
  16    7    8 1
  17    8    9 2
  18    8   10 1
  19    9   30 1
  20    9   13 1
  21   10   11 2
  22   10   39 1
  23   11   12 1
  24   11   40 1
  25   12   13 1
  26   12   14 1
  27   13   16 2
  28   14   15 2
  29   14   17 1
  30   15   16 1
  31   17   41 1
  32   17   42 1
  33   18   21 1
  34   19   20 1
  35   19   43 1
  36   19   44 1
  37   20   45 1
  38   20   46 1
  39   21   22 1
  40   21   47 1
  41   21   48 1
  42   22   23 ar
  43   22   27 ar
  44   23   24 ar
  45   23   49 1
  46   24   25 ar
  47   25   26 ar
  48   25   28 1
  49   26   27 ar
  50   26   50 1
  51   27   51 1
  52   28   29 1
  53   29   52 1
  54   29   53 1
  55   29   54 1
  56   30   31 1
  57   30   32 1
  58   30   33 1

#	End of record

