#	Name: ASD02030785
#	Creating user name:	WinNT
#	Creation time:	15. 06. 2019 20:16

#	Modifying user name:	WinNT
#	Modification time:	15. 06. 2019 20:16

#	Program:	/corina/corina34_cracker 3.40 0067  02.08.2006

@<TRIPOS>MOLECULE
ASD02030785
  81   84    0    0    0
SMALL
NO_CHARGES


@<TRIPOS>ATOM
   1 H1            -0.8239     1.0989    -1.0317 H       
   2 C2            -0.5906     2.1636    -1.0360 C.3     
   3 C3            -0.7098     2.7333    -2.4715 C.3     
   4 C4             0.7167     3.1909    -2.8811 C.3     
   5 C5             1.6209     2.3362    -1.9861 C.3     
   6 H6             1.6648     1.3128    -2.3588 H       
   7 C7             3.0161     2.8831    -1.7427 C.3     
   8 H8             2.9593     3.8864    -1.3206 H       
   9 C9             3.8023     2.8846    -3.0585 C.3     
  10 C10            5.2278     3.2641    -2.7818 C.2     
  11 C11            5.8051     3.0616    -1.6338 C.2     
  12 C12            7.2573     3.4796    -1.4757 C.3     
  13 C13            8.0449     2.2901    -0.9187 C.3     
  14 O14            9.3908     2.6914    -0.6550 O.3     
  15 C15            8.0431     1.1530    -1.9424 C.3     
  16 C16            8.6955     1.6339    -3.2401 C.3     
  17 C17            7.3927     1.8092     0.3787 C.3     
  18 C18            5.9834     1.2910     0.0852 C.3     
  19 C19            5.1225     2.4370    -0.4535 C.3     
  20 C20            5.0012     3.4968     0.6433 C.3     
  21 C21            3.7225     1.9345    -0.7644 C.3     
  22 H22            3.8062     0.9550    -1.2353 H       
  23 C23            2.9351     1.7664     0.5319 C.3     
  24 C24            1.4845     1.3349     0.2659 C.3     
  25 C25            0.8633     2.3876    -0.6324 C.3     
  26 C26            1.0195     3.7730    -0.0020 C.3     
  27 C27           -1.5261     2.9143    -0.0862 C.3     
  28 H28           -1.2355     3.9640    -0.0444 H       
  29 C29           -1.4306     2.3026     1.3129 C.3     
  30 C30           -2.9650     2.8034    -0.5942 C.3     
  31 C31           -3.8831     3.6560     0.2839 C.3     
  32 C32           -5.3220     3.5451    -0.2242 C.3     
  33 C33           -6.2400     4.3977     0.6539 C.3     
  34 C34           -7.6938     4.1897     0.2246 C.3     
  35 C35           -6.0760     3.9824     2.1173 C.3     
  36 O36           -5.8929     5.7762     0.5082 O.3     
  37 H37           -1.0646     1.9599    -3.1527 H       
  38 H38           -1.3925     3.5830    -2.4812 H       
  39 H39            0.9029     2.9775    -3.9336 H       
  40 H40            0.8569     4.2512    -2.6707 H       
  41 H41            3.7700     1.8900    -3.5031 H       
  42 H42            3.3603     3.6060    -3.7458 H       
  43 H43            5.8007     3.7262    -3.5722 H       
  44 H44            7.6640     3.7676    -2.4451 H       
  45 H45            7.3242     4.3200    -0.7847 H       
  46 H46            9.8666     3.0087    -1.4347 H       
  47 H47            8.6037     0.3064    -1.5460 H       
  48 H48            7.0165     0.8468    -2.1436 H       
  49 H49            8.6942     0.8238    -3.9694 H       
  50 H50            8.1349     2.4806    -3.6365 H       
  51 H51            9.7221     1.9401    -3.0389 H       
  52 H52            7.9916     1.0073     0.8102 H       
  53 H53            7.3348     2.6379     1.0844 H       
  54 H54            6.0360     0.4953    -0.6580 H       
  55 H55            5.5402     0.9033     1.0025 H       
  56 H56            4.3015     4.2700     0.3257 H       
  57 H57            4.6373     3.0316     1.5594 H       
  58 H58            5.9783     3.9439     0.8261 H       
  59 H59            3.4229     1.0114     1.1485 H       
  60 H60            2.9307     2.7141     1.0703 H       
  61 H61            1.4707     0.3658    -0.2328 H       
  62 H62            0.9356     1.2778     1.2059 H       
  63 H63            0.4761     3.8058     0.9423 H       
  64 H64            2.0756     3.9726     0.1794 H       
  65 H65            0.6181     4.5274    -0.6787 H       
  66 H66           -1.6420     1.2347     1.2578 H       
  67 H67           -0.4261     2.4542     1.7080 H       
  68 H68           -2.1557     2.7830     1.9698 H       
  69 H69           -3.0152     3.1577    -1.6238 H       
  70 H70           -3.2859     1.7625    -0.5521 H       
  71 H71           -3.8329     3.3017     1.3135 H       
  72 H72           -3.5621     4.6969     0.2418 H       
  73 H73           -5.3721     3.8994    -1.2537 H       
  74 H74           -5.6429     2.5042    -0.1821 H       
  75 H75           -7.9585     3.1382     0.3358 H       
  76 H76           -8.3478     4.7972     0.8502 H       
  77 H77           -7.8106     4.4856    -0.8179 H       
  78 H78           -5.0403     4.1306     2.4232 H       
  79 H79           -6.7301     4.5899     2.7429 H       
  80 H80           -6.3408     2.9309     2.2285 H       
  81 H81           -5.9737     6.1087    -0.3963 H       
@<TRIPOS>BOND
   1    1    2 1
   2    2   25 1
   3    2    3 1
   4    2   27 1
   5    3    4 1
   6    3   37 1
   7    3   38 1
   8    4    5 1
   9    4   39 1
  10    4   40 1
  11    5   25 1
  12    5    6 1
  13    5    7 1
  14    7   21 1
  15    7    8 1
  16    7    9 1
  17    9   10 1
  18    9   41 1
  19    9   42 1
  20   10   11 2
  21   10   43 1
  22   11   19 1
  23   11   12 1
  24   12   13 1
  25   12   44 1
  26   12   45 1
  27   13   14 1
  28   13   15 1
  29   13   17 1
  30   14   46 1
  31   15   16 1
  32   15   47 1
  33   15   48 1
  34   16   49 1
  35   16   50 1
  36   16   51 1
  37   17   18 1
  38   17   52 1
  39   17   53 1
  40   18   19 1
  41   18   54 1
  42   18   55 1
  43   19   20 1
  44   19   21 1
  45   20   56 1
  46   20   57 1
  47   20   58 1
  48   21   22 1
  49   21   23 1
  50   23   24 1
  51   23   59 1
  52   23   60 1
  53   24   25 1
  54   24   61 1
  55   24   62 1
  56   25   26 1
  57   26   63 1
  58   26   64 1
  59   26   65 1
  60   27   28 1
  61   27   29 1
  62   27   30 1
  63   29   66 1
  64   29   67 1
  65   29   68 1
  66   30   31 1
  67   30   69 1
  68   30   70 1
  69   31   32 1
  70   31   71 1
  71   31   72 1
  72   32   33 1
  73   32   73 1
  74   32   74 1
  75   33   34 1
  76   33   35 1
  77   33   36 1
  78   34   75 1
  79   34   76 1
  80   34   77 1
  81   35   78 1
  82   35   79 1
  83   35   80 1
  84   36   81 1

#	End of record

