#	Name: ASD01028619
#	Creating user name:	WinNT
#	Creation time:	15. 06. 2019 18:57

#	Modifying user name:	WinNT
#	Modification time:	15. 06. 2019 18:57

#	Program:	/corina/corina34_cracker 3.40 0067  02.08.2006

@<TRIPOS>MOLECULE
ASD01028619
  42   46    0    0    0
SMALL
NO_CHARGES


@<TRIPOS>ATOM
   1 N1            -0.0169     1.3922     0.0097 N.2     
   2 N2             0.0021    -0.0041     0.0020 N.pl3   
   3 C3             1.1092     2.0748     0.0026 C.2     
   4 C4             2.3562     1.4103    -0.0133 C.2     
   5 C5             2.4042     0.0529    -0.0211 C.2     
   6 C6             1.1999    -0.6773    -0.0130 C.2     
   7 N7             0.9132    -1.9690    -0.0178 N.2     
   8 N8            -0.3651    -2.1205    -0.0063 N.2     
   9 C9            -0.9591    -0.9530     0.0061 C.2     
  10 C10           -2.4467    -0.7121     0.0220 C.3     
  11 N11           -2.9152    -0.6424     1.4083 N.pl3   
  12 C12           -4.2591    -0.4259     1.6763 C.ar    
  13 C13           -5.1757    -0.2728     0.6492 C.ar    
  14 C14           -6.5148    -0.0572     0.9464 C.ar    
  15 N15           -6.9454     0.0075     2.1850 N.ar    
  16 C16           -6.1157    -0.1316     3.2243 C.ar    
  17 C17           -4.7363    -0.3606     3.0087 C.ar    
  18 C18           -6.5915    -0.0605     4.5468 C.ar    
  19 C19           -5.6912    -0.2113     5.5684 C.ar    
  20 C20           -4.3401    -0.4293     5.2792 C.ar    
  21 N21           -3.9075    -0.5008     4.0443 N.ar    
  22 O22           -6.1097    -0.1489     6.8594 O.3     
  23 C23           -5.1155    -0.3149     7.8724 C.3     
  24 C24            1.0684     3.5518     0.0109 C.2     
  25 S25            2.4626     4.6292     0.0028 S.3     
  26 C26            1.4251     5.9877     0.0198 C.2     
  27 N27            0.1899     5.6100     0.0299 N.2     
  28 C28           -0.0449     4.3175     0.0202 C.2     
  29 H29            3.2722     1.9824    -0.0197 H       
  30 H30            3.3544    -0.4602    -0.0336 H       
  31 H31           -2.6680     0.2276    -0.4840 H       
  32 H32           -2.9526    -1.5294    -0.4919 H       
  33 H33           -2.2859    -0.7477     2.1389 H       
  34 H34           -4.8499    -0.3207    -0.3794 H       
  35 H35           -7.2205     0.0608     0.1375 H       
  36 H36           -7.6385     0.1088     4.7509 H       
  37 H37           -3.6386    -0.5468     6.0920 H       
  38 H38           -5.5823    -0.2433     8.8548 H       
  39 H39           -4.6458    -1.2925     7.7637 H       
  40 H40           -4.3602     0.4644     7.7713 H       
  41 H41            1.7555     7.0160     0.0223 H       
  42 H42           -1.0420     3.9025     0.0274 H       
@<TRIPOS>BOND
   1    1    2 1
   2    1    3 2
   3    2    6 1
   4    2    9 1
   5    3    4 1
   6    3   24 1
   7    4    5 2
   8    4   29 1
   9    5    6 1
  10    5   30 1
  11    6    7 2
  12    7    8 1
  13    8    9 2
  14    9   10 1
  15   10   11 1
  16   10   31 1
  17   10   32 1
  18   11   12 1
  19   11   33 1
  20   12   13 ar
  21   12   17 ar
  22   13   14 ar
  23   13   34 1
  24   14   15 ar
  25   14   35 1
  26   15   16 ar
  27   16   17 ar
  28   16   18 ar
  29   17   21 ar
  30   18   19 ar
  31   18   36 1
  32   19   20 ar
  33   19   22 1
  34   20   21 ar
  35   20   37 1
  36   22   23 1
  37   23   38 1
  38   23   39 1
  39   23   40 1
  40   24   25 1
  41   24   28 2
  42   25   26 1
  43   26   27 2
  44   26   41 1
  45   27   28 1
  46   28   42 1

#	End of record

