#	Name: ASD01914409
#	Creating user name:	WinNT
#	Creation time:	15. 06. 2019 20:03

#	Modifying user name:	WinNT
#	Modification time:	15. 06. 2019 20:03

#	Program:	/corina/corina34_cracker 3.40 0067  02.08.2006

@<TRIPOS>MOLECULE
ASD01914409
  61   65    0    0    0
SMALL
NO_CHARGES


@<TRIPOS>ATOM
   1 C1            -2.5867     0.5352    -2.3626 C.ar    
   2 C2            -2.1941    -0.7576    -2.0761 C.ar    
   3 C3            -0.9879    -0.9885    -1.4292 C.ar    
   4 C4            -0.1783     0.0808    -1.0713 C.ar    
   5 C5            -0.5741     1.3722    -1.3594 C.ar    
   6 C6            -1.7778     1.6007    -2.0048 C.ar    
   7 N7            -0.5877    -2.3009    -1.1371 N.pl3   
   8 C8            -1.3422    -3.2606    -0.5179 C.2     
   9 C9            -0.5688    -4.3748    -0.4388 C.2     
  10 N10            0.6248    -4.0906    -0.9984 N.2     
  11 C11            0.6190    -2.8574    -1.4216 C.2     
  12 C12           -0.9664    -5.6734     0.1581 C.ar    
  13 C13           -0.0697    -6.7401     0.1732 C.ar    
  14 C14           -0.4448    -7.9458     0.7302 C.ar    
  15 C15           -1.7082    -8.0966     1.2730 C.ar    
  16 C16           -2.6025    -7.0414     1.2604 C.ar    
  17 C17           -2.2361    -5.8294     0.7111 C.ar    
  18 C18            1.7662    -2.1603    -2.1065 C.3     
  19 O19            0.7434    -3.0107    -4.0560 O.2     
  20 C20            1.6602    -2.3635    -3.5960 C.2     
  21 N21            2.5842    -1.8261    -4.4169 N.am    
  22 F22           -2.1632     2.8646    -2.2861 F       
  23 C23           -2.1119    -9.4156     1.8798 C.3     
  24 C24            3.7112    -1.0415    -3.8908 C.3     
  25 C25            2.5096    -2.0058    -5.8766 C.3     
  26 C26            2.3610    -0.6261    -6.5207 C.3     
  27 N27            3.3174     0.3145    -5.9534 N.am    
  28 C28            3.9066     0.1721    -4.7581 C.2     
  29 O29            4.6260     1.0628    -4.3579 O.2     
  30 C30            3.6469     1.4440    -6.7111 C.ar    
  31 C31            4.7230     1.4033    -7.5834 C.ar    
  32 C32            5.0475     2.5323    -8.3368 C.ar    
  33 C33            4.2855     3.6952    -8.2064 C.ar    
  34 C34            3.2159     3.7249    -7.3348 C.ar    
  35 C35            2.8914     2.6047    -6.5930 C.ar    
  36 C36            6.1582     2.4985    -9.2400 C.1     
  37 N37            7.0393     2.4718    -9.9565 N.1     
  38 H38           -3.5231     0.7150    -2.8698 H       
  39 H39           -2.8254    -1.5883    -2.3550 H       
  40 H40            0.7604    -0.0970    -0.5676 H       
  41 H41            0.0553     2.2044    -1.0807 H       
  42 H42           -2.3558    -3.1528    -0.1611 H       
  43 H43            0.9169    -6.6236    -0.2506 H       
  44 H44            0.2492    -8.7732     0.7421 H       
  45 H45           -3.5877    -7.1648     1.6852 H       
  46 H46           -2.9350    -5.0061     0.7022 H       
  47 H47            1.7299    -1.0944    -1.8817 H       
  48 H48            2.7088    -2.5751    -1.7494 H       
  49 H49           -1.8543    -9.4223     2.9389 H       
  50 H50           -3.1872    -9.5536     1.7666 H       
  51 H51           -1.5863   -10.2248     1.3729 H       
  52 H52            3.4933    -0.7291    -2.8695 H       
  53 H53            4.6162    -1.6488    -3.9035 H       
  54 H54            3.4215    -2.4830    -6.2355 H       
  55 H55            1.6473    -2.6236    -6.1275 H       
  56 H56            2.5341    -0.7105    -7.5936 H       
  57 H57            1.3499    -0.2571    -6.3490 H       
  58 H58            5.3088     0.5011    -7.6795 H       
  59 H59            4.5334     4.5713    -8.7873 H       
  60 H60            2.6276     4.6252    -7.2353 H       
  61 H61            2.0532     2.6342    -5.9126 H       
@<TRIPOS>BOND
   1    1    2 ar
   2    1    6 ar
   3    1   38 1
   4    2    3 ar
   5    2   39 1
   6    3    4 ar
   7    3    7 1
   8    4    5 ar
   9    4   40 1
  10    5    6 ar
  11    5   41 1
  12    6   22 1
  13    7    8 1
  14    7   11 1
  15    8    9 2
  16    8   42 1
  17    9   10 1
  18    9   12 1
  19   10   11 2
  20   11   18 1
  21   12   13 ar
  22   12   17 ar
  23   13   14 ar
  24   13   43 1
  25   14   15 ar
  26   14   44 1
  27   15   16 ar
  28   15   23 1
  29   16   17 ar
  30   16   45 1
  31   17   46 1
  32   18   20 1
  33   18   47 1
  34   18   48 1
  35   19   20 2
  36   20   21 am
  37   21   25 1
  38   21   24 1
  39   23   49 1
  40   23   50 1
  41   23   51 1
  42   24   28 1
  43   24   52 1
  44   24   53 1
  45   25   26 1
  46   25   54 1
  47   25   55 1
  48   26   27 1
  49   26   56 1
  50   26   57 1
  51   27   28 am
  52   27   30 1
  53   28   29 2
  54   30   31 ar
  55   30   35 ar
  56   31   32 ar
  57   31   58 1
  58   32   33 ar
  59   32   36 1
  60   33   34 ar
  61   33   59 1
  62   34   35 ar
  63   34   60 1
  64   35   61 1
  65   36   37 3

#	End of record

