#	Name: ASD01811180
#	Creating user name:	WinNT
#	Creation time:	15. 06. 2019 19:26

#	Modifying user name:	WinNT
#	Modification time:	15. 06. 2019 19:26

#	Program:	/corina/corina34_cracker 3.40 0067  02.08.2006

@<TRIPOS>MOLECULE
ASD01811180
  66   70    0    0    0
SMALL
NO_CHARGES


@<TRIPOS>ATOM
   1 C1            -7.3466     2.1555    -3.9255 C.1     
   2 C2            -6.3676     2.9519    -3.2487 C.ar    
   3 C3            -5.2038     2.3609    -2.7528 C.ar    
   4 C4            -4.2650     3.1341    -2.1017 C.ar    
   5 C5            -4.4747     4.4920    -1.9393 C.ar    
   6 C6            -5.6259     5.0840    -2.4278 C.ar    
   7 C7            -6.5699     4.3240    -3.0868 C.ar    
   8 N8            -8.1231     1.5238    -4.4624 N.1     
   9 N9            -2.4186     7.7558    -0.1955 N.am    
  10 C10           -1.8592     7.2466    -1.4550 C.3     
  11 C11           -2.9306     6.4186    -2.1714 C.3     
  12 C12           -3.4448     5.3300    -1.2265 C.3     
  13 C13           -4.0796     5.9795     0.0053 C.3     
  14 C14           -3.0212     6.8025     0.7463 C.3     
  15 C15           -2.3749     9.0715     0.0931 C.2     
  16 C16           -3.0198     9.5807     1.3225 C.ar    
  17 C17           -3.9764    10.5954     1.2424 C.ar    
  18 C18           -4.5793    11.0717     2.3893 C.ar    
  19 C19           -4.2421    10.5491     3.6223 C.ar    
  20 C20           -3.2877     9.5342     3.7165 C.ar    
  21 C21           -2.6788     9.0455     2.5627 C.ar    
  22 O22           -1.8054     9.8397    -0.6573 O.2     
  23 C23           -4.3507    11.1717    -0.0988 C.3     
  24 N24           -2.9282     8.5983     7.1307 N.2     
  25 N25           -3.4899     9.2672     6.1878 N.2     
  26 C26           -2.9274     8.9761     5.0379 C.2     
  27 N27           -1.9409     8.0545     5.2941 N.pl3   
  28 C28           -1.9755     7.8417     6.6403 C.2     
  29 O29           -1.1743     7.0040     7.3415 O.3     
  30 C30           -1.3850     6.9349     8.7532 C.3     
  31 C31           -0.3944     5.9448     9.3689 C.3     
  32 C32           -4.9051    11.0757     4.8689 C.3     
  33 C33           -4.7672    12.5972     5.0443 C.3     
  34 C34           -6.2244    12.5936     5.5356 C.3     
  35 C35           -6.4167    11.3101     4.7106 C.3     
  36 H36           -5.0392     1.3010    -2.8783 H       
  37 H37           -3.3644     2.6783    -1.7176 H       
  38 H38           -5.7835     6.1445    -2.2973 H       
  39 H39           -7.4658     4.7882    -3.4719 H       
  40 H40           -1.5607     8.0831    -2.0869 H       
  41 H41           -0.9935     6.6191    -1.2431 H       
  42 H42           -3.7568     7.0670    -2.4632 H       
  43 H43           -2.4996     5.9559    -3.0592 H       
  44 H44           -2.6137     4.6970    -0.9154 H       
  45 H45           -4.8950     6.6320    -0.3070 H       
  46 H46           -4.4664     5.2042     0.6667 H       
  47 H47           -2.2503     6.1387     1.1377 H       
  48 H48           -3.4895     7.3460     1.5669 H       
  49 H49           -5.3179    11.8568     2.3220 H       
  50 H50           -1.9430     8.2577     2.6297 H       
  51 H51           -5.1186    10.5504    -0.5597 H       
  52 H52           -4.7337    12.1834     0.0346 H       
  53 H53           -3.4707    11.1980    -0.7414 H       
  54 H54           -1.3438     7.6415     4.6509 H       
  55 H55           -1.2331     7.9211     9.1919 H       
  56 H56           -2.4034     6.6015     8.9526 H       
  57 H57            0.6240     6.2782     9.1695 H       
  58 H58           -0.5552     5.8921    10.4457 H       
  59 H59           -0.5463     4.9586     8.9302 H       
  60 H60           -4.6411    10.5077     5.7610 H       
  61 H61           -4.0484    12.8849     5.8115 H       
  62 H62           -4.6240    13.1336     4.1063 H       
  63 H63           -6.3224    12.4406     6.6103 H       
  64 H64           -6.8098    13.4381     5.1721 H       
  65 H65           -6.7245    11.4947     3.6813 H       
  66 H66           -7.0296    10.5588     5.2085 H       
@<TRIPOS>BOND
   1    1    2 1
   2    1    8 3
   3    2    3 ar
   4    2    7 ar
   5    3    4 ar
   6    3   36 1
   7    4    5 ar
   8    4   37 1
   9    5    6 ar
  10    5   12 1
  11    6    7 ar
  12    6   38 1
  13    7   39 1
  14    9   10 1
  15    9   14 1
  16    9   15 am
  17   10   11 1
  18   10   40 1
  19   10   41 1
  20   11   12 1
  21   11   42 1
  22   11   43 1
  23   12   13 1
  24   12   44 1
  25   13   14 1
  26   13   45 1
  27   13   46 1
  28   14   47 1
  29   14   48 1
  30   15   16 1
  31   15   22 2
  32   16   17 ar
  33   16   21 ar
  34   17   18 ar
  35   17   23 1
  36   18   19 ar
  37   18   49 1
  38   19   20 ar
  39   19   32 1
  40   20   21 ar
  41   20   26 1
  42   21   50 1
  43   23   51 1
  44   23   52 1
  45   23   53 1
  46   24   25 1
  47   24   28 2
  48   25   26 2
  49   26   27 1
  50   27   28 1
  51   27   54 1
  52   28   29 1
  53   29   30 1
  54   30   31 1
  55   30   55 1
  56   30   56 1
  57   31   57 1
  58   31   58 1
  59   31   59 1
  60   32   33 1
  61   32   35 1
  62   32   60 1
  63   33   34 1
  64   33   61 1
  65   33   62 1
  66   34   35 1
  67   34   63 1
  68   34   64 1
  69   35   65 1
  70   35   66 1

#	End of record

