#	Name: ASD03331303
#	Creating user name:	WinNT
#	Creation time:	15. 06. 2019 20:38

#	Modifying user name:	WinNT
#	Modification time:	15. 06. 2019 20:38

#	Program:	/corina/corina34_cracker 3.40 0067  02.08.2006

@<TRIPOS>MOLECULE
ASD03331303
  57   59    0    0    0
SMALL
NO_CHARGES


@<TRIPOS>ATOM
   1 N1            -0.2570     1.5586    -0.6101 N.2     
   2 N2            -0.1326     0.1795    -0.3781 N.am    
   3 C3             1.1843    -0.1003    -0.2403 C.2     
   4 C4             1.8745     1.0585    -0.3774 C.2     
   5 C5             0.9502     2.0879    -0.6099 C.2     
   6 C6             3.3774     1.1390    -0.2802 C.3     
   7 C7             1.8544    -1.4274     0.0179 C.3     
   8 C8             3.3472    -1.2678    -0.3061 C.3     
   9 O9             3.8486    -0.0795     0.3115 O.3     
  10 C10           -1.1446    -0.7076    -0.3049 C.2     
  11 O11           -0.9096    -1.8816    -0.0980 O.2     
  12 N12           -2.4173    -0.2925    -0.4612 N.am    
  13 C13            1.2745     3.5203    -0.8197 C.ar    
  14 C14            0.5491     4.5074    -0.1509 C.ar    
  15 C15            0.8551     5.8405    -0.3490 C.ar    
  16 C16            1.8796     6.1974    -1.2096 C.ar    
  17 C17            2.6034     5.2194    -1.8765 C.ar    
  18 C18            2.3079     3.8840    -1.6804 C.ar    
  19 F19            3.6016     5.5733    -2.7152 F       
  20 F20            2.1750     7.5017    -1.4006 F       
  21 F21           -0.4510     4.1603     0.6885 F       
  22 C22           -4.6990    -0.7361    -1.1585 C.2     
  23 C23           -3.5173    -1.2568    -0.3816 C.3     
  24 C24           -3.9166    -1.4554     1.0819 C.3     
  25 C25           -4.3190    -0.1093     1.6879 C.3     
  26 O26           -4.7621     0.4392    -1.4512 O.2     
  27 C27           -5.0983    -2.4240     1.1613 C.3     
  28 C28           -2.7319    -2.0313     1.8601 C.3     
  29 N29           -5.6858    -1.5764    -1.5281 N.am    
  30 C30           -6.8716    -1.0572    -2.2140 C.3     
  31 C31           -7.8297    -2.2102    -2.5196 C.3     
  32 O32           -8.3139    -2.7645    -1.2948 O.3     
  33 H33            3.8053     1.2547    -1.2760 H       
  34 H34            3.6614     1.9860     0.3443 H       
  35 H35            1.7312    -1.7060     1.0645 H       
  36 H36            1.4170    -2.1930    -0.6229 H       
  37 H37            3.8947    -2.1316     0.0711 H       
  38 H38            3.4787    -1.1988    -1.3859 H       
  39 H39           -2.6049     0.6447    -0.6264 H       
  40 H40            0.2940     6.6051     0.1678 H       
  41 H41            2.8748     3.1233    -2.1966 H       
  42 H42           -3.1966    -2.2095    -0.8032 H       
  43 H43           -5.1630     0.3010     1.1335 H       
  44 H44           -4.6034    -0.2508     2.7306 H       
  45 H45           -3.4771     0.5807     1.6314 H       
  46 H46           -4.7965    -3.3977     0.7752 H       
  47 H47           -5.4147    -2.5269     2.1992 H       
  48 H48           -5.9255    -2.0376     0.5659 H       
  49 H49           -1.8901    -1.3413     1.8036 H       
  50 H50           -3.0164    -2.1728     2.9028 H       
  51 H51           -2.4453    -2.9903     1.4284 H       
  52 H52           -5.6108    -2.5251    -1.3399 H       
  53 H53           -7.3713    -0.3291    -1.5750 H       
  54 H54           -6.5715    -0.5775    -3.1457 H       
  55 H55           -8.6693    -1.8389    -3.1073 H       
  56 H56           -7.3035    -2.9801    -3.0839 H       
  57 H57           -8.9282    -3.5020    -1.4125 H       
@<TRIPOS>BOND
   1    1    2 1
   2    1    5 2
   3    2    3 1
   4    2   10 am
   5    3    4 2
   6    3    7 1
   7    4    5 1
   8    4    6 1
   9    5   13 1
  10    6    9 1
  11    6   33 1
  12    6   34 1
  13    7    8 1
  14    7   35 1
  15    7   36 1
  16    8    9 1
  17    8   37 1
  18    8   38 1
  19   10   11 2
  20   10   12 am
  21   12   23 1
  22   12   39 1
  23   13   14 ar
  24   13   18 ar
  25   14   15 ar
  26   14   21 1
  27   15   16 ar
  28   15   40 1
  29   16   17 ar
  30   16   20 1
  31   17   18 ar
  32   17   19 1
  33   18   41 1
  34   22   26 2
  35   22   29 am
  36   22   23 1
  37   23   24 1
  38   23   42 1
  39   24   25 1
  40   24   27 1
  41   24   28 1
  42   25   43 1
  43   25   44 1
  44   25   45 1
  45   27   46 1
  46   27   47 1
  47   27   48 1
  48   28   49 1
  49   28   50 1
  50   28   51 1
  51   29   30 1
  52   29   52 1
  53   30   31 1
  54   30   53 1
  55   30   54 1
  56   31   32 1
  57   31   55 1
  58   31   56 1
  59   32   57 1

#	End of record

