#	Name: ASD01410002
#	Creating user name:	WinNT
#	Creation time:	15. 06. 2019 19:16

#	Modifying user name:	WinNT
#	Modification time:	15. 06. 2019 19:16

#	Program:	/corina/corina34_cracker 3.40 0067  02.08.2006

@<TRIPOS>MOLECULE
ASD01410002
  76   80    0    0    0
SMALL
NO_CHARGES


@<TRIPOS>ATOM
   1 C1            -0.0169     1.3986     0.0097 C.ar    
   2 C2             0.0021    -0.0041     0.0020 C.ar    
   3 C3            -1.1621    -0.7093     0.0089 C.ar    
   4 C4            -2.3912    -0.0347     0.0242 C.ar    
   5 C5            -2.4204     1.3751     0.0326 C.ar    
   6 C6            -1.2305     2.0850     0.0308 C.ar    
   7 C7            -3.7375    -0.4722     0.0348 C.2     
   8 C8            -4.5317     0.6283     0.0488 C.2     
   9 N9            -3.7465     1.7566     0.0476 N.pl3   
  10 C10           -6.0103     0.6156     0.0626 C.ar    
  11 C11           -4.2054    -1.9047     0.0304 C.3     
  12 C12            1.2513     2.1499     0.0017 C.2     
  13 O13            2.4258     1.4892    -0.0131 O.3     
  14 O14            1.2377     3.3650     0.0083 O.2     
  15 C15           -6.7103     1.4578     0.9276 C.ar    
  16 C16           -8.0898     1.4414     0.9352 C.ar    
  17 C17           -8.7792     0.5924     0.0878 C.ar    
  18 C18           -8.0912    -0.2451    -0.7722 C.ar    
  19 C19           -6.7118    -0.2346    -0.7934 C.ar    
  20 C20           -3.6901    -2.6057    -1.2282 C.3     
  21 C21           -4.1652    -4.0600    -1.2326 C.3     
  22 C22           -3.6262    -4.7765     0.0072 C.3     
  23 C23           -4.1415    -4.0755     1.2657 C.3     
  24 C24           -3.6664    -2.6211     1.2702 C.3     
  25 C25           -4.2368     3.1371     0.0602 C.3     
  26 C26           -4.3912     3.6023     1.4853 C.2     
  27 N27           -4.8323     4.8495     1.7430 N.am    
  28 O28           -4.1184     2.8544     2.4003 O.2     
  29 C29           -5.1617     5.7529     0.6378 C.3     
  30 C30           -4.9823     5.3018     3.1283 C.3     
  31 C31           -3.6753     5.9421     3.6002 C.3     
  32 C32           -3.4053     7.2105     2.7876 C.3     
  33 N33           -2.1618     7.8369     3.2543 N.3     
  34 C34           -2.2658     8.2384     4.6630 C.3     
  35 C35           -2.5018     7.0007     5.5316 C.3     
  36 C36           -3.7907     6.3066     5.0829 C.3     
  37 C37           -1.7977     8.9800     2.4066 C.3     
  38 H38            0.9465    -0.5277    -0.0098 H       
  39 H39           -1.1391    -1.7891     0.0021 H       
  40 H40           -1.2430     3.1649     0.0371 H       
  41 H41           -5.2951    -1.9310     0.0405 H       
  42 H42            3.2308     2.0250    -0.0179 H       
  43 H43           -6.1733     2.1208     1.5899 H       
  44 H44           -8.6328     2.0924     1.6044 H       
  45 H45           -9.8591     0.5831     0.0979 H       
  46 H46           -8.6353    -0.9055    -1.4312 H       
  47 H47           -6.1759    -0.8886    -1.4654 H       
  48 H48           -4.0741    -2.0953    -2.1114 H       
  49 H49           -2.6005    -2.5794    -1.2383 H       
  50 H50           -5.2548    -4.0863    -1.2225 H       
  51 H51           -3.7981    -4.5595    -2.1292 H       
  52 H52           -3.9647    -5.8126     0.0040 H       
  53 H53           -2.5366    -4.7502    -0.0030 H       
  54 H54           -5.2312    -4.1017     1.2759 H       
  55 H55           -3.7575    -4.5859     2.1489 H       
  56 H56           -2.5768    -2.5948     1.2600 H       
  57 H57           -4.0336    -2.1217     2.1668 H       
  58 H58           -3.5248     3.7803    -0.4569 H       
  59 H59           -5.2020     3.1844    -0.4440 H       
  60 H60           -6.2117     5.6329     0.3711 H       
  61 H61           -4.9800     6.7831     0.9441 H       
  62 H62           -4.5384     5.5149    -0.2242 H       
  63 H63           -5.7874     6.0343     3.1862 H       
  64 H64           -5.2200     4.4496     3.7650 H       
  65 H65           -2.8544     5.2388     3.4606 H       
  66 H66           -3.3084     6.9525     1.7330 H       
  67 H67           -4.2335     7.9074     2.9162 H       
  68 H68           -1.3412     8.7270     4.9706 H       
  69 H69           -3.0993     8.9305     4.7828 H       
  70 H70           -1.6620     6.3144     5.4229 H       
  71 H71           -2.5945     7.3009     6.5753 H       
  72 H72           -4.6362     6.9791     5.2279 H       
  73 H73           -3.9400     5.4005     5.6702 H       
  74 H74           -2.5953     9.7224     2.4355 H       
  75 H75           -0.8733     9.4253     2.7744 H       
  76 H76           -1.6544     8.6404     1.3808 H       
@<TRIPOS>BOND
   1    1    2 ar
   2    1   12 1
   3    1    6 ar
   4    2    3 ar
   5    2   38 1
   6    3    4 ar
   7    3   39 1
   8    4    5 ar
   9    4    7 1
  10    5    6 ar
  11    5    9 1
  12    6   40 1
  13    7    8 2
  14    7   11 1
  15    8    9 1
  16    8   10 1
  17    9   25 1
  18   10   15 ar
  19   10   19 ar
  20   11   20 1
  21   11   24 1
  22   11   41 1
  23   12   13 1
  24   12   14 2
  25   13   42 1
  26   15   16 ar
  27   15   43 1
  28   16   17 ar
  29   16   44 1
  30   17   18 ar
  31   17   45 1
  32   18   19 ar
  33   18   46 1
  34   19   47 1
  35   20   21 1
  36   20   48 1
  37   20   49 1
  38   21   22 1
  39   21   50 1
  40   21   51 1
  41   22   23 1
  42   22   52 1
  43   22   53 1
  44   23   24 1
  45   23   54 1
  46   23   55 1
  47   24   56 1
  48   24   57 1
  49   25   26 1
  50   25   58 1
  51   25   59 1
  52   26   27 am
  53   26   28 2
  54   27   29 1
  55   27   30 1
  56   29   60 1
  57   29   61 1
  58   29   62 1
  59   30   31 1
  60   30   63 1
  61   30   64 1
  62   31   32 1
  63   31   36 1
  64   31   65 1
  65   32   33 1
  66   32   66 1
  67   32   67 1
  68   33   34 1
  69   33   37 1
  70   34   35 1
  71   34   68 1
  72   34   69 1
  73   35   36 1
  74   35   70 1
  75   35   71 1
  76   36   72 1
  77   36   73 1
  78   37   74 1
  79   37   75 1
  80   37   76 1

#	End of record

