#	Name: ASD09116207
#	Creating user name:	WinNT
#	Creation time:	15. 06. 2019 21:21

#	Modifying user name:	WinNT
#	Modification time:	15. 06. 2019 21:21

#	Program:	/corina/corina34_cracker 3.40 0067  02.08.2006

@<TRIPOS>MOLECULE
ASD09116207
  81   86    0    0    0
SMALL
NO_CHARGES


@<TRIPOS>ATOM
   1 N1             1.0622    -0.6482    -2.5580 N.2     
   2 N2             1.3340    -1.6353    -3.5189 N.pl3   
   3 C3             2.1864    -0.0102    -2.3360 C.2     
   4 N4             3.1472    -0.5402    -3.1020 N.2     
   5 C5             2.6486    -1.5223    -3.8219 C.2     
   6 N6             2.3535     1.0503    -1.4455 N.pl3   
   7 C7             3.6304     1.5744    -1.2129 C.ar    
   8 C8             3.7810     2.9126    -0.8734 C.ar    
   9 C9             6.1563     2.6111    -0.7524 C.ar    
  10 C10            6.0064     1.2730    -1.0859 C.ar    
  11 C11            4.7471     0.7552    -1.3159 C.ar    
  12 C12            0.4282    -2.5524    -4.0551 C.ar    
  13 N13            0.6460    -3.0759    -5.2522 N.ar    
  14 N14           -0.1613    -3.9163    -5.7952 N.ar    
  15 C15           -1.2673    -4.3097    -5.1844 C.ar    
  16 C16           -1.5690    -3.8262    -3.9080 C.ar    
  17 C17           -0.7052    -2.9223    -3.3265 C.ar    
  18 C18           -2.2263    -5.2359    -5.8300 C.ar    
  19 C19           -3.5813    -4.9012    -5.8451 C.ar    
  20 C20           -4.0238    -3.5890    -5.2580 C.3     
  21 C21           -4.0490    -3.6416    -3.7328 C.3     
  22 C22           -2.7931    -4.3214    -3.1942 C.3     
  23 C23           -1.7966    -6.4238    -6.4110 C.ar    
  24 C24           -2.7191    -7.2771    -6.9848 C.ar    
  25 C25           -4.0633    -6.9517    -6.9793 C.ar    
  26 C26           -4.4942    -5.7661    -6.4094 C.ar    
  27 N27            3.3442    -2.3013    -4.7269 N.pl3   
  28 C28            5.0411     3.4287    -0.6437 C.ar    
  29 O29            7.3969     3.1201    -0.5260 O.3     
  30 C30            7.4775     4.5060    -0.1869 C.3     
  31 C31            8.9297     4.8702     0.1285 C.3     
  32 N32            9.7565     4.6674    -1.0686 N.3     
  33 C33            9.7536     5.8293    -1.9361 C.3     
  34 C34           10.6760     5.6581    -3.1423 C.3     
  35 C35           12.0644     5.2204    -2.6749 C.3     
  36 C36           11.9289     3.8716    -1.9706 C.3     
  37 C37           11.0012     3.9913    -0.7645 C.3     
  38 C38           11.7420     4.6859     0.3844 C.3     
  39 C39           10.6669     2.5588    -0.2916 C.3     
  40 C40            8.3188     6.0274    -2.4720 C.3     
  41 C41           10.1348     7.0996    -1.1700 C.3     
  42 H42            1.5847     1.4247    -0.9874 H       
  43 H43            2.9129     3.5496    -0.7894 H       
  44 H44            6.8749     0.6359    -1.1656 H       
  45 H45            4.6305    -0.2867    -1.5755 H       
  46 H46           -0.9016    -2.5094    -2.3481 H       
  47 H47           -3.3357    -2.8058    -5.5764 H       
  48 H48           -5.0235    -3.3539    -5.6233 H       
  49 H49           -4.1043    -2.6265    -3.3396 H       
  50 H50           -4.9268    -4.1999    -3.4075 H       
  51 H51           -2.8796    -5.3986    -3.3363 H       
  52 H52           -2.6983    -4.1076    -2.1296 H       
  53 H53           -0.7470    -6.6782    -6.4133 H       
  54 H54           -2.3899    -8.2000    -7.4390 H       
  55 H55           -4.7809    -7.6265    -7.4221 H       
  56 H56           -5.5454    -5.5186    -6.4073 H       
  57 H57            4.2895    -2.1436    -4.8766 H       
  58 H58            2.8871    -3.0058    -5.2124 H       
  59 H59            5.1584     4.4694    -0.3797 H       
  60 H60            7.1264     5.1064    -1.0262 H       
  61 H61            6.8556     4.7032     0.6862 H       
  62 H62            8.9839     5.9149     0.4348 H       
  63 H63            9.2964     4.2355     0.9352 H       
  64 H64           10.2627     4.9023    -3.8125 H       
  65 H65           10.7545     6.6059    -3.6779 H       
  66 H66           12.7158     5.1061    -3.5475 H       
  67 H67           12.4974     5.9599    -2.0090 H       
  68 H68           11.5232     3.1364    -2.6699 H       
  69 H69           12.9142     3.5346    -1.6395 H       
  70 H70           12.0544     5.6807     0.0665 H       
  71 H71           11.0790     4.7711     1.2453 H       
  72 H72           12.6193     4.0998     0.6580 H       
  73 H73           11.5780     2.0665     0.0483 H       
  74 H74            9.9509     2.6048     0.5290 H       
  75 H75           10.2359     1.9944    -1.1186 H       
  76 H76            7.6842     6.4169    -1.6760 H       
  77 H77            8.3353     6.7337    -3.3020 H       
  78 H78            7.9243     5.0713    -2.8162 H       
  79 H79           11.1338     6.9844    -0.7495 H       
  80 H80           10.1228     7.9514    -1.8500 H       
  81 H81            9.4190     7.2671    -0.3652 H       
@<TRIPOS>BOND
   1    1    2 1
   2    1    3 2
   3    2   12 1
   4    2    5 1
   5    3    4 1
   6    3    6 1
   7    4    5 2
   8    5   27 1
   9    6    7 1
  10    6   42 1
  11    7    8 ar
  12    7   11 ar
  13    8   28 ar
  14    8   43 1
  15    9   10 ar
  16    9   29 1
  17    9   28 ar
  18   10   11 ar
  19   10   44 1
  20   11   45 1
  21   12   13 ar
  22   12   17 ar
  23   13   14 ar
  24   14   15 ar
  25   15   16 ar
  26   15   18 1
  27   16   17 ar
  28   16   22 1
  29   17   46 1
  30   18   19 ar
  31   18   23 ar
  32   19   20 1
  33   19   26 ar
  34   20   21 1
  35   20   47 1
  36   20   48 1
  37   21   22 1
  38   21   49 1
  39   21   50 1
  40   22   51 1
  41   22   52 1
  42   23   24 ar
  43   23   53 1
  44   24   25 ar
  45   24   54 1
  46   25   26 ar
  47   25   55 1
  48   26   56 1
  49   27   57 1
  50   27   58 1
  51   28   59 1
  52   29   30 1
  53   30   31 1
  54   30   60 1
  55   30   61 1
  56   31   32 1
  57   31   62 1
  58   31   63 1
  59   32   33 1
  60   32   37 1
  61   33   34 1
  62   33   40 1
  63   33   41 1
  64   34   35 1
  65   34   64 1
  66   34   65 1
  67   35   36 1
  68   35   66 1
  69   35   67 1
  70   36   37 1
  71   36   68 1
  72   36   69 1
  73   37   38 1
  74   37   39 1
  75   38   70 1
  76   38   71 1
  77   38   72 1
  78   39   73 1
  79   39   74 1
  80   39   75 1
  81   40   76 1
  82   40   77 1
  83   40   78 1
  84   41   79 1
  85   41   80 1
  86   41   81 1

#	End of record

