#	Name: ASD06600064
#	Creating user name:	WinNT
#	Creation time:	15. 06. 2019 21:07

#	Modifying user name:	WinNT
#	Modification time:	15. 06. 2019 21:07

#	Program:	/corina/corina34_cracker 3.40 0067  02.08.2006

@<TRIPOS>MOLECULE
ASD06600064
 330  331    0    0    0
SMALL
NO_CHARGES


@<TRIPOS>ATOM
   1 C1            -4.2910     2.9754    -8.1779 C.2     
   2 O2            -4.1379     1.7787    -8.3019 O.2     
   3 N3            -1.9431     3.1524    -8.7656 N.am    
   4 C4            -3.1687     3.9187    -8.5268 C.3     
   5 C5            -3.5346     4.7019    -9.7892 C.3     
   6 C6            -2.4637     5.7604   -10.0610 C.3     
   7 C7            -3.6171     3.7428   -10.9784 C.3     
   8 C8            -7.8857     3.3161    -7.6083 C.2     
   9 O9            -7.8710     4.5009    -7.8672 O.2     
  10 N10           -5.4666     3.4619    -7.7334 N.am    
  11 C11           -6.5908     2.5541    -7.4921 C.3     
  12 C12           -6.4734     1.9591    -6.0874 C.3     
  13 C13           -5.2403     1.0964    -6.0087 C.2     
  14 C14           -4.2444     1.2195    -5.1107 C.2     
  15 N15           -3.3306     0.2411    -5.3961 N.pl3   
  16 C16           -3.8003    -0.4463    -6.4594 C.2     
  17 N17           -4.9452     0.0677    -6.8173 N.2     
  18 C18          -11.3849     2.7271    -6.7298 C.2     
  19 O19          -11.1192     1.7130    -6.1200 O.2     
  20 N20           -9.0602     2.6811    -7.4245 N.am    
  21 C21          -10.3190     3.4219    -7.5374 C.3     
  22 C22          -10.7473     3.4790    -9.0052 C.3     
  23 C23           -9.7261     4.2922    -9.8031 C.3     
  24 C24          -10.1543     4.3493   -11.2708 C.3     
  25 N25           -9.1765     5.1280   -12.0349 N.pl3   
  26 C26           -9.3521     5.3168   -13.3853 C.2     
  27 N27           -8.4822     6.0096   -14.0651 N.2     
  28 N28          -10.4454     4.7748   -14.0187 N.pl3   
  29 C29          -15.0265     2.8983    -6.4603 C.2     
  30 O30          -15.1189     3.6331    -7.4207 O.2     
  31 N31          -12.6335     3.2327    -6.6853 N.am    
  32 C32          -13.6697     2.5574    -5.9002 C.3     
  33 C33          -13.5884     3.0193    -4.4438 C.3     
  34 C34          -12.2596     2.5634    -3.8376 C.3     
  35 C35          -12.1232     3.1304    -2.4231 C.3     
  36 C36          -12.2231     1.0349    -3.7801 C.3     
  37 C37          -18.4967     2.5739    -5.3577 C.2     
  38 O38          -18.1686     2.2282    -4.2425 O.2     
  39 N39          -16.1373     2.3867    -5.8939 N.am    
  40 C40          -17.4564     2.7181    -6.4385 C.3     
  41 C41          -17.7849     1.7689    -7.5926 C.3     
  42 C42          -16.8021     2.0036    -8.7415 C.3     
  43 C43          -17.1306     1.0543    -9.8956 C.3     
  44 N44          -16.1895     1.2790   -10.9956 N.pl3   
  45 C45          -16.2895     0.5364   -12.1483 C.2     
  46 N46          -15.4523     0.7364   -13.1270 N.2     
  47 N47          -17.2727    -0.4171   -12.2686 N.pl3   
  48 C48          -22.1459     2.4186    -5.2083 C.2     
  49 O49          -22.2481     2.3499    -6.4148 O.2     
  50 N50          -19.7917     2.8289    -5.6306 N.am    
  51 C51          -20.8030     2.6887    -4.5800 C.3     
  52 C52          -20.8726     3.9807    -3.7634 C.3     
  53 C53          -19.5487     4.1896    -3.0255 C.3     
  54 C54          -19.6173     5.4622    -2.2212 C.2     
  55 O55          -20.6258     6.1357    -2.2366 O.2     
  56 N56          -18.5579     5.8518    -1.4847 N.am    
  57 C57          -25.6308     2.4417    -4.1047 C.2     
  58 O58          -25.3467     2.9341    -3.0334 O.2     
  59 N59          -23.2333     2.2532    -4.4293 N.am    
  60 C60          -24.5387     1.9906    -5.0401 C.3     
  61 C61          -24.6840     0.4913    -5.3083 C.3     
  62 C62          -29.2448     1.9611    -3.8370 C.2     
  63 O63          -29.2548     1.1245    -4.7151 O.2     
  64 N64          -26.9233     2.2980    -4.4587 N.am    
  65 C65          -27.9850     2.7365    -3.5494 C.3     
  66 C66          -28.2473     4.2299    -3.7543 C.3     
  67 C67          -27.0075     5.0266    -3.3431 C.3     
  68 C68          -27.2659     6.4975    -3.5449 C.2     
  69 O69          -28.3363     6.8717    -3.9752 O.2     
  70 N70          -26.3075     7.3971    -3.2472 N.am    
  71 C71          -32.7811     2.2466    -2.9561 C.2     
  72 O72          -32.6258     3.3409    -2.4569 O.2     
  73 N73          -30.3603     2.1973    -3.1185 N.am    
  74 C74          -31.5849     1.4435    -3.3980 C.3     
  75 C75          -31.5521     0.1166    -2.6369 C.3     
  76 C76          -30.4116    -0.7508    -3.1731 C.3     
  77 C77          -30.3787    -2.0777    -2.4119 C.3     
  78 N78          -29.2866    -2.9083    -2.9254 N.pl3   
  79 C79          -29.0609    -4.1545    -2.3905 C.2     
  80 N80          -28.0893    -4.8936    -2.8473 N.2     
  81 N81          -29.8600    -4.6213    -1.3738 N.pl3   
  82 C82          -36.3339     1.5993    -2.3892 C.2     
  83 O83          -36.3344     0.4735    -2.8403 O.2     
  84 N84          -34.0233     1.7488    -3.1158 N.am    
  85 C85          -35.1861     2.5296    -2.6862 C.3     
  86 C86          -35.5897     3.4982    -3.7997 C.3     
  87 C87          -34.4906     4.5458    -3.9875 C.3     
  88 C88          -34.8941     5.5144    -5.1010 C.3     
  89 N89          -33.8417     6.5176    -5.2808 N.pl3   
  90 C90          -33.9834     7.4995    -6.2326 C.2     
  91 N91          -35.0540     7.5379    -6.9750 N.2     
  92 N92          -32.9957     8.4409    -6.4014 N.pl3   
  93 C93          -39.3000     0.9298    -2.6175 C.2     
  94 O94          -38.8420     1.2991    -3.6781 O.2     
  95 N95          -37.3599     2.0184    -1.6223 N.am    
  96 C96          -38.5817     1.2535    -1.3329 C.3     
  97 C97          -39.4761     2.1392    -0.4402 C.3     
  98 C98          -38.9591     3.5707    -0.7417 C.3     
  99 C99          -37.4402     3.3173    -0.9295 C.3     
 100 C100         -42.6153    -0.2929    -3.5539 C.2     
 101 O101         -43.0351    -0.1886    -2.4209 O.2     
 102 N102         -40.4514     0.2299    -2.5878 N.am    
 103 C103         -41.1498    -0.0848    -3.8366 C.3     
 104 C104         -40.5611    -1.3603    -4.4427 C.3     
 105 C105         -39.1063    -1.1097    -4.8446 C.3     
 106 C106         -38.5265    -2.3661    -5.4415 C.2     
 107 O107         -39.2096    -3.3638    -5.5362 O.2     
 108 N108         -37.2488    -2.3811    -5.8701 N.am    
 109 C109         -45.4804    -1.6820    -5.3497 C.2     
 110 O110         -44.7838    -2.1022    -6.2492 O.2     
 111 N111         -43.4595    -0.5949    -4.5602 N.am    
 112 C112         -44.8842    -0.7972    -4.2854 C.3     
 113 C113         -45.6007     0.5547    -4.2858 C.3     
 114 C114         -45.0818     1.4072    -3.1261 C.3     
 115 C115         -45.7983     2.7591    -3.1265 C.3     
 116 N116         -45.3015     3.5754    -2.0160 N.pl3   
 117 C117         -45.8025     4.8397    -1.8144 C.2     
 118 N118         -46.7195     5.3121    -2.6112 N.2     
 119 N119         -45.3363     5.6057    -0.7723 N.pl3   
 120 C120         -48.8464    -2.5980    -6.4425 C.2     
 121 O121         -49.3653    -1.7698    -5.7244 O.2     
 122 N122         -46.7877    -2.0063    -5.3020 N.am    
 123 C123         -47.3673    -2.8664    -6.3366 C.3     
 124 C124         -47.1404    -4.3335    -5.9662 C.3     
 125 C125         -45.6409    -4.6372    -5.9806 C.3     
 126 C126         -45.4175    -6.0821    -5.6158 C.2     
 127 O127         -46.3643    -6.7986    -5.3686 O.2     
 128 N128         -44.1654    -6.5783    -5.5642 N.am    
 129 C129         -51.7653    -3.8419    -6.4128 C.2     
 130 O130         -51.1509    -4.5725    -5.6721 O.2     
 131 N131         -49.5925    -3.2783    -7.3352 N.am    
 132 C132         -51.0304    -3.0174    -7.4381 C.3     
 133 C133         -51.5179    -3.3928    -8.8390 C.3     
 134 C134         -50.8643    -2.4709    -9.8704 C.3     
 135 C135         -51.3518    -2.8463   -11.2713 C.3     
 136 C136         -50.6983    -1.9244   -12.3027 C.3     
 137 N137         -51.1663    -2.2848   -13.6477 N.3     
 138 O138         -53.1023    -3.7646    -6.3224 O.3     
 139 C139          -0.7399     3.7357    -8.5964 C.2     
 140 O140          -0.6718     4.8949    -8.2465 O.2     
 141 C141          17.9987     3.5735    -8.7561 C.3     
 142 C142          16.7188     4.3738    -8.5067 C.3     
 143 C143          15.5019     3.4841    -8.7684 C.3     
 144 C144          14.2219     4.2844    -8.5190 C.3     
 145 C145          13.0050     3.3946    -8.7807 C.3     
 146 C146          11.7251     4.1949    -8.5313 C.3     
 147 C147          10.5082     3.3052    -8.7929 C.3     
 148 C148           9.2282     4.1055    -8.5436 C.3     
 149 C149           8.0113     3.2158    -8.8052 C.3     
 150 C150           6.7314     4.0160    -8.5558 C.3     
 151 C151           5.5145     3.1263    -8.8175 C.3     
 152 C152           4.2345     3.9266    -8.5681 C.3     
 153 C153           3.0176     3.0369    -8.8298 C.3     
 154 C154           1.7377     3.8372    -8.5804 C.3     
 155 C155           0.5208     2.9475    -8.8421 C.3     
 156 H156          -1.9976     2.2253    -9.0455 H       
 157 H157          -3.0081     4.6131    -7.7021 H       
 158 H158          -4.4993     5.1891    -9.6477 H       
 159 H159          -1.5241     5.2697   -10.3150 H       
 160 H160          -2.7797     6.3921   -10.8911 H       
 161 H161          -2.3244     6.3733    -9.1705 H       
 162 H162          -4.3800     2.9888   -10.7848 H       
 163 H163          -3.8778     4.3008   -11.8778 H       
 164 H164          -2.6524     3.2556   -11.1199 H       
 165 H165          -5.5684     4.4132    -7.5733 H       
 166 H166          -6.5743     1.7513    -8.2293 H       
 167 H167          -6.4006     2.7646    -5.3566 H       
 168 H168          -7.3545     1.3538    -5.8744 H       
 169 H169          -4.1790     1.9500    -4.3179 H       
 170 H170          -2.5007     0.0729    -4.9230 H       
 171 H171          -3.3114    -1.2850    -6.9326 H       
 172 H172          -9.0720     1.7335    -7.2174 H       
 173 H173         -10.1796     4.4349    -7.1599 H       
 174 H174         -10.8007     2.4675    -9.4077 H       
 175 H175         -11.7265     3.9519    -9.0798 H       
 176 H176          -9.6727     5.3038    -9.4006 H       
 177 H177          -8.7468     3.8193    -9.7285 H       
 178 H178         -10.2077     3.3378   -11.6734 H       
 179 H179         -11.1336     4.8222   -11.3455 H       
 180 H180          -8.4052     5.5104   -11.5880 H       
 181 H181          -8.6061     6.1427   -15.0179 H       
 182 H182         -11.0928     4.2592   -13.5128 H       
 183 H183         -10.5693     4.9080   -14.9715 H       
 184 H184         -12.8460     4.0438    -7.1730 H       
 185 H185         -13.5171     1.4792    -5.9484 H       
 186 H186         -13.6521     4.1067    -4.4035 H       
 187 H187         -14.4134     2.5858    -3.8785 H       
 188 H188         -11.4363     2.9236    -4.4544 H       
 189 H189         -12.9465     2.7702    -1.8063 H       
 190 H190         -11.1766     2.8056    -1.9912 H       
 191 H191         -12.1492     4.2193    -2.4641 H       
 192 H192         -11.2765     0.7101    -3.3482 H       
 193 H193         -13.0464     0.6747    -3.1632 H       
 194 H194         -12.3203     0.6310    -4.7878 H       
 195 H195         -16.0635     1.7990    -5.1258 H       
 196 H196         -17.4513     3.7453    -6.8031 H       
 197 H197         -17.7030     0.7376    -7.2493 H       
 198 H198         -18.8010     1.9568    -7.9395 H       
 199 H199         -16.8840     3.0349    -9.0847 H       
 200 H200         -15.7860     1.8157    -8.3945 H       
 201 H201         -17.0487     0.0230    -9.5523 H       
 202 H202         -18.1467     1.2422   -10.2425 H       
 203 H203         -15.4959     1.9518   -10.9107 H       
 204 H204         -15.5228     0.2124   -13.9403 H       
 205 H205         -17.8957    -0.5658   -11.5403 H       
 206 H206         -17.3432    -0.9410   -13.0819 H       
 207 H207         -20.0541     3.1054    -6.5226 H       
 208 H208         -20.5346     1.8593    -3.9256 H       
 209 H209         -21.0534     4.8232    -4.4310 H       
 210 H210         -21.6847     3.9098    -3.0397 H       
 211 H211         -19.3680     3.3471    -2.3579 H       
 212 H212         -18.7367     4.2605    -3.7491 H       
 213 H213         -17.7514     5.3131    -1.4723 H       
 214 H214         -18.6021     6.6709    -0.9670 H       
 215 H215         -23.1515     2.3081    -3.4644 H       
 216 H216         -24.6167     2.5370    -5.9800 H       
 217 H217         -25.6553     0.2959    -5.7627 H       
 218 H218         -23.8941     0.1650    -5.9848 H       
 219 H219         -24.6061    -0.0551    -4.3684 H       
 220 H220         -27.1506     1.9042    -5.3156 H       
 221 H221         -27.6768     2.5597    -2.5190 H       
 222 H222         -28.4690     4.4191    -4.8046 H       
 223 H223         -29.0958     4.5369    -3.1428 H       
 224 H224         -26.7858     4.8373    -2.2928 H       
 225 H225         -26.1590     4.7195    -3.9546 H       
 226 H226         -25.4514     7.0978    -2.9030 H       
 227 H227         -26.4738     8.3439    -3.3770 H       
 228 H228         -30.3522     2.8664    -2.4162 H       
 229 H229         -31.6544     1.2469    -4.4679 H       
 230 H230         -31.3935     0.3102    -1.5760 H       
 231 H231         -32.4998    -0.4042    -2.7735 H       
 232 H232         -30.5702    -0.9444    -4.2340 H       
 233 H233         -29.4638    -0.2300    -3.0365 H       
 234 H234         -30.2201    -1.8841    -1.3510 H       
 235 H235         -31.3265    -2.5985    -2.5485 H       
 236 H236         -28.7228    -2.5790    -3.6427 H       
 237 H237         -27.9300    -5.7728    -2.4699 H       
 238 H238         -30.5831    -4.0713    -1.0338 H       
 239 H239         -29.7008    -5.5005    -0.9964 H       
 240 H240         -34.1475     0.8736    -3.5151 H       
 241 H241         -34.9336     3.0933    -1.7882 H       
 242 H242         -35.7279     2.9459    -4.7293 H       
 243 H243         -36.5220     3.9941    -3.5297 H       
 244 H244         -34.3524     5.0981    -3.0580 H       
 245 H245         -33.5582     4.0499    -4.2576 H       
 246 H246         -35.0323     4.9622    -6.0306 H       
 247 H247         -35.8265     6.0103    -4.8310 H       
 248 H248         -33.0449     6.4890    -4.7284 H       
 249 H249         -35.1540     8.2307    -7.6466 H       
 250 H250         -32.1990     8.4123    -5.8489 H       
 251 H251         -33.0957     9.1337    -7.0729 H       
 252 H252         -38.3269     0.3325    -0.8086 H       
 253 H253         -40.5237     2.0398    -0.7245 H       
 254 H254         -39.3359     1.8922     0.6121 H       
 255 H255         -39.4085     3.9646    -1.6532 H       
 256 H256         -39.1408     4.2374     0.1013 H       
 257 H257         -36.9398     3.2631     0.0373 H       
 258 H258         -36.9981     4.1024    -1.5430 H       
 259 H259         -40.8178    -0.0654    -1.7396 H       
 260 H260         -41.0287     0.7404    -4.5385 H       
 261 H261         -40.6017    -2.1641    -3.7076 H       
 262 H262         -41.1376    -1.6438    -5.3232 H       
 263 H263         -39.0657    -0.3059    -5.5797 H       
 264 H264         -38.5298    -0.8262    -3.9640 H       
 265 H265         -36.7024    -1.5832    -5.7944 H       
 266 H266         -36.8756    -3.1898    -6.2544 H       
 267 H267         -43.1237    -0.6783    -5.4664 H       
 268 H268         -45.0026    -1.2708    -3.3109 H       
 269 H269         -45.4084     1.0676    -5.2282 H       
 270 H270         -46.6730     0.3976    -4.1699 H       
 271 H271         -45.2741     0.8943    -2.1837 H       
 272 H272         -44.0094     1.5643    -3.2420 H       
 273 H273         -45.6060     3.2719    -4.0689 H       
 274 H274         -46.8707     2.6020    -3.0106 H       
 275 H275         -44.6191     3.2238    -1.4231 H       
 276 H276         -47.0730     6.2041    -2.4689 H       
 277 H277         -44.6538     5.2542    -0.1793 H       
 278 H278         -45.6897     6.4977    -0.6300 H       
 279 H279         -47.3448    -1.6702    -4.5826 H       
 280 H280         -46.8903    -2.6554    -7.2937 H       
 281 H281         -47.5399    -4.5226    -4.9698 H       
 282 H282         -47.6476    -4.9732    -6.6884 H       
 283 H283         -45.2415    -4.4480    -6.9770 H       
 284 H284         -45.1337    -3.9974    -5.2584 H       
 285 H285         -43.4081    -6.0053    -5.7619 H       
 286 H286         -44.0216    -7.5084    -5.3294 H       
 287 H287         -49.1775    -3.9408    -7.9095 H       
 288 H288         -51.2215    -1.9594    -7.2583 H       
 289 H289         -51.2474    -4.4268    -9.0528 H       
 290 H290         -52.6012    -3.2829    -8.8882 H       
 291 H291         -51.1348    -1.4369    -9.6566 H       
 292 H292         -49.7810    -2.5807    -9.8211 H       
 293 H293         -51.0814    -3.8803   -11.4851 H       
 294 H294         -52.4351    -2.7364   -11.3206 H       
 295 H295         -50.9687    -0.8904   -12.0889 H       
 296 H296         -49.6149    -2.0342   -12.2535 H       
 297 H297         -52.1734    -2.2533   -13.7007 H       
 298 H298         -50.7486    -1.6898   -14.3475 H       
 299 H299         -53.5292    -4.3123    -5.6495 H       
 300 H300          18.8657     4.2074    -8.5697 H       
 301 H301          18.0262     2.7141    -8.0862 H       
 302 H302          18.0162     3.2290    -9.7900 H       
 303 H303          16.7013     4.7183    -7.4727 H       
 304 H304          16.6913     5.2332    -9.1766 H       
 305 H305          15.5193     3.1395    -9.8023 H       
 306 H306          15.5294     2.6247    -8.0985 H       
 307 H307          14.2045     4.6289    -7.4850 H       
 308 H308          14.1944     5.1438    -9.1889 H       
 309 H309          13.0225     3.0501    -9.8146 H       
 310 H310          13.0325     2.5352    -8.1108 H       
 311 H311          11.7076     4.5395    -7.4973 H       
 312 H312          11.6976     5.0543    -9.2011 H       
 313 H313          10.5256     2.9607    -9.8269 H       
 314 H314          10.5357     2.4458    -8.1231 H       
 315 H315           9.2108     4.4500    -7.5096 H       
 316 H316           9.2007     4.9649    -9.2134 H       
 317 H317           8.0288     2.8712    -9.8392 H       
 318 H318           8.0388     2.3563    -8.1353 H       
 319 H319           6.7140     4.3606    -7.5219 H       
 320 H320           6.7039     4.8755    -9.2257 H       
 321 H321           5.5319     2.7818    -9.8515 H       
 322 H322           5.5420     2.2669    -8.1476 H       
 323 H323           4.2171     4.2712    -7.5342 H       
 324 H324           4.2070     4.7860    -9.2380 H       
 325 H325           3.0351     2.6923    -9.8638 H       
 326 H326           3.0451     2.1775    -8.1599 H       
 327 H327           1.7203     4.1817    -7.5465 H       
 328 H328           1.7102     4.6966    -9.2503 H       
 329 H329           0.5483     2.0880    -8.1722 H       
 330 H330           0.5382     2.6029    -9.8760 H       
@<TRIPOS>BOND
   1    1    2 2
   2    1    4 1
   3    1   10 am
   4    3  139 am
   5    3    4 1
   6    3  156 1
   7    4    5 1
   8    4  157 1
   9    5    6 1
  10    5    7 1
  11    5  158 1
  12    6  159 1
  13    6  160 1
  14    6  161 1
  15    7  162 1
  16    7  163 1
  17    7  164 1
  18    8    9 2
  19    8   11 1
  20    8   20 am
  21   10   11 1
  22   10  165 1
  23   11   12 1
  24   11  166 1
  25   12   13 1
  26   12  167 1
  27   12  168 1
  28   13   14 2
  29   13   17 1
  30   14   15 1
  31   14  169 1
  32   15   16 1
  33   15  170 1
  34   16   17 2
  35   16  171 1
  36   18   19 2
  37   18   21 1
  38   18   31 am
  39   20   21 1
  40   20  172 1
  41   21   22 1
  42   21  173 1
  43   22   23 1
  44   22  174 1
  45   22  175 1
  46   23   24 1
  47   23  176 1
  48   23  177 1
  49   24   25 1
  50   24  178 1
  51   24  179 1
  52   25   26 1
  53   25  180 1
  54   26   27 2
  55   26   28 1
  56   27  181 1
  57   28  182 1
  58   28  183 1
  59   29   30 2
  60   29   32 1
  61   29   39 am
  62   31   32 1
  63   31  184 1
  64   32   33 1
  65   32  185 1
  66   33   34 1
  67   33  186 1
  68   33  187 1
  69   34   35 1
  70   34   36 1
  71   34  188 1
  72   35  189 1
  73   35  190 1
  74   35  191 1
  75   36  192 1
  76   36  193 1
  77   36  194 1
  78   37   38 2
  79   37   40 1
  80   37   50 am
  81   39   40 1
  82   39  195 1
  83   40   41 1
  84   40  196 1
  85   41   42 1
  86   41  197 1
  87   41  198 1
  88   42   43 1
  89   42  199 1
  90   42  200 1
  91   43   44 1
  92   43  201 1
  93   43  202 1
  94   44   45 1
  95   44  203 1
  96   45   46 2
  97   45   47 1
  98   46  204 1
  99   47  205 1
 100   47  206 1
 101   48   49 2
 102   48   51 1
 103   48   59 am
 104   50   51 1
 105   50  207 1
 106   51   52 1
 107   51  208 1
 108   52   53 1
 109   52  209 1
 110   52  210 1
 111   53   54 1
 112   53  211 1
 113   53  212 1
 114   54   55 2
 115   54   56 am
 116   56  213 1
 117   56  214 1
 118   57   58 2
 119   57   60 1
 120   57   64 am
 121   59   60 1
 122   59  215 1
 123   60   61 1
 124   60  216 1
 125   61  217 1
 126   61  218 1
 127   61  219 1
 128   62   63 2
 129   62   65 1
 130   62   73 am
 131   64   65 1
 132   64  220 1
 133   65   66 1
 134   65  221 1
 135   66   67 1
 136   66  222 1
 137   66  223 1
 138   67   68 1
 139   67  224 1
 140   67  225 1
 141   68   69 2
 142   68   70 am
 143   70  226 1
 144   70  227 1
 145   71   72 2
 146   71   74 1
 147   71   84 am
 148   73   74 1
 149   73  228 1
 150   74   75 1
 151   74  229 1
 152   75   76 1
 153   75  230 1
 154   75  231 1
 155   76   77 1
 156   76  232 1
 157   76  233 1
 158   77   78 1
 159   77  234 1
 160   77  235 1
 161   78   79 1
 162   78  236 1
 163   79   80 2
 164   79   81 1
 165   80  237 1
 166   81  238 1
 167   81  239 1
 168   82   83 2
 169   82   85 1
 170   82   95 am
 171   84   85 1
 172   84  240 1
 173   85   86 1
 174   85  241 1
 175   86   87 1
 176   86  242 1
 177   86  243 1
 178   87   88 1
 179   87  244 1
 180   87  245 1
 181   88   89 1
 182   88  246 1
 183   88  247 1
 184   89   90 1
 185   89  248 1
 186   90   91 2
 187   90   92 1
 188   91  249 1
 189   92  250 1
 190   92  251 1
 191   93   94 2
 192   93  102 am
 193   93   96 1
 194   95   96 1
 195   95   99 1
 196   96   97 1
 197   96  252 1
 198   97   98 1
 199   97  253 1
 200   97  254 1
 201   98   99 1
 202   98  255 1
 203   98  256 1
 204   99  257 1
 205   99  258 1
 206  100  101 2
 207  100  103 1
 208  100  111 am
 209  102  103 1
 210  102  259 1
 211  103  104 1
 212  103  260 1
 213  104  105 1
 214  104  261 1
 215  104  262 1
 216  105  106 1
 217  105  263 1
 218  105  264 1
 219  106  107 2
 220  106  108 am
 221  108  265 1
 222  108  266 1
 223  109  110 2
 224  109  112 1
 225  109  122 am
 226  111  112 1
 227  111  267 1
 228  112  113 1
 229  112  268 1
 230  113  114 1
 231  113  269 1
 232  113  270 1
 233  114  115 1
 234  114  271 1
 235  114  272 1
 236  115  116 1
 237  115  273 1
 238  115  274 1
 239  116  117 1
 240  116  275 1
 241  117  118 2
 242  117  119 1
 243  118  276 1
 244  119  277 1
 245  119  278 1
 246  120  121 2
 247  120  123 1
 248  120  131 am
 249  122  123 1
 250  122  279 1
 251  123  124 1
 252  123  280 1
 253  124  125 1
 254  124  281 1
 255  124  282 1
 256  125  126 1
 257  125  283 1
 258  125  284 1
 259  126  127 2
 260  126  128 am
 261  128  285 1
 262  128  286 1
 263  129  130 2
 264  129  132 1
 265  129  138 1
 266  131  132 1
 267  131  287 1
 268  132  133 1
 269  132  288 1
 270  133  134 1
 271  133  289 1
 272  133  290 1
 273  134  135 1
 274  134  291 1
 275  134  292 1
 276  135  136 1
 277  135  293 1
 278  135  294 1
 279  136  137 1
 280  136  295 1
 281  136  296 1
 282  137  297 1
 283  137  298 1
 284  138  299 1
 285  139  140 2
 286  139  155 1
 287  141  142 1
 288  141  300 1
 289  141  301 1
 290  141  302 1
 291  142  143 1
 292  142  303 1
 293  142  304 1
 294  143  144 1
 295  143  305 1
 296  143  306 1
 297  144  145 1
 298  144  307 1
 299  144  308 1
 300  145  146 1
 301  145  309 1
 302  145  310 1
 303  146  147 1
 304  146  311 1
 305  146  312 1
 306  147  148 1
 307  147  313 1
 308  147  314 1
 309  148  149 1
 310  148  315 1
 311  148  316 1
 312  149  150 1
 313  149  317 1
 314  149  318 1
 315  150  151 1
 316  150  319 1
 317  150  320 1
 318  151  152 1
 319  151  321 1
 320  151  322 1
 321  152  153 1
 322  152  323 1
 323  152  324 1
 324  153  154 1
 325  153  325 1
 326  153  326 1
 327  154  155 1
 328  154  327 1
 329  154  328 1
 330  155  329 1
 331  155  330 1

#	End of record

