#	Name: ASD01883731
#	Creating user name:	WinNT
#	Creation time:	15. 06. 2019 19:46

#	Modifying user name:	WinNT
#	Modification time:	15. 06. 2019 19:46

#	Program:	/corina/corina34_cracker 3.40 0067  02.08.2006

@<TRIPOS>MOLECULE
ASD01883731
  52   56    0    0    0
SMALL
NO_CHARGES


@<TRIPOS>ATOM
   1 C1            -0.0164     1.3569     0.0095 C.2     
   2 C2             0.0021    -0.0041     0.0020 C.2     
   3 C3            -1.2087    -0.7162     0.0102 C.2     
   4 C4            -2.3862    -0.0574     0.0255 C.2     
   5 N5            -2.4197     1.3075     0.0332 N.pl3   
   6 C6            -1.2553     2.0305     0.0309 C.2     
   7 C7            -3.4497     2.2079     0.0483 C.2     
   8 C8            -2.9006     3.4425     0.0495 C.2     
   9 N9            -1.5714     3.3178     0.0396 N.2     
  10 Cl10           1.4697     2.2543     0.0001 Cl      
  11 C11           -4.9213     1.8835     0.0605 C.3     
  12 C12           -5.4602     1.9049    -1.3713 C.3     
  13 F13           -4.7795     0.9546    -2.1400 F       
  14 F14           -6.8263     1.6037    -1.3600 F       
  15 F15           -5.2674     3.1759    -1.9232 F       
  16 C16            1.3152    -0.7434    -0.0155 C.3     
  17 N17            1.6969    -1.0962     1.3585 N.3     
  18 C18            2.8407    -2.0169     1.3669 C.3     
  19 C19            3.1152    -2.4777     2.8006 C.3     
  20 C20            3.4051    -1.2586     3.6767 C.3     
  21 C21            2.2239    -0.2893     3.6101 C.3     
  22 C22            1.9768     0.1072     2.1523 C.3     
  23 C23            3.6201    -1.7061     5.1268 C.3     
  24 O24            4.7446    -2.5919     5.1617 O.3     
  25 C25            5.8529    -2.2018     4.4747 C.ar    
  26 C26            5.7759    -1.2124     3.5018 C.ar    
  27 O27            4.5911    -0.6048     3.2195 O.3     
  28 C28            7.0722    -2.8017     4.7528 C.ar    
  29 C29            8.2059    -2.4188     4.0615 C.ar    
  30 C30            8.1280    -1.4384     3.0899 C.ar    
  31 C31            6.9168    -0.8350     2.8092 C.ar    
  32 H32           -1.1971    -1.7961     0.0040 H       
  33 H33           -3.3111    -0.6151     0.0314 H       
  34 H34           -3.4459     4.3746     0.0594 H       
  35 H35           -5.0715     0.8932     0.4905 H       
  36 H36           -5.4517     2.6239     0.6594 H       
  37 H37            1.2127    -1.6520    -0.6088 H       
  38 H38            2.0842    -0.1077    -0.4544 H       
  39 H39            2.6149    -2.8825     0.7441 H       
  40 H40            3.7205    -1.5069     0.9746 H       
  41 H41            2.2424    -3.0041     3.1869 H       
  42 H42            3.9768    -3.1453     2.8095 H       
  43 H43            1.3333    -0.7727     4.0117 H       
  44 H44            2.4507     0.6014     4.1961 H       
  45 H45            2.8615     0.6059     1.7565 H       
  46 H46            1.1240     0.7839     2.0994 H       
  47 H47            3.8175    -0.8369     5.7541 H       
  48 H48            2.7319    -2.2256     5.4866 H       
  49 H49            7.1358    -3.5685     5.5106 H       
  50 H50            9.1546    -2.8860     4.2810 H       
  51 H51            9.0154    -1.1429     2.5500 H       
  52 H52            6.8585    -0.0693     2.0497 H       
@<TRIPOS>BOND
   1    1    2 2
   2    1   10 1
   3    1    6 1
   4    2    3 1
   5    2   16 1
   6    3    4 2
   7    3   32 1
   8    4    5 1
   9    4   33 1
  10    5    6 1
  11    5    7 1
  12    6    9 2
  13    7    8 2
  14    7   11 1
  15    8    9 1
  16    8   34 1
  17   11   12 1
  18   11   35 1
  19   11   36 1
  20   12   13 1
  21   12   14 1
  22   12   15 1
  23   16   17 1
  24   16   37 1
  25   16   38 1
  26   17   18 1
  27   17   22 1
  28   18   19 1
  29   18   39 1
  30   18   40 1
  31   19   20 1
  32   19   41 1
  33   19   42 1
  34   20   21 1
  35   20   23 1
  36   20   27 1
  37   21   22 1
  38   21   43 1
  39   21   44 1
  40   22   45 1
  41   22   46 1
  42   23   24 1
  43   23   47 1
  44   23   48 1
  45   24   25 1
  46   25   26 ar
  47   25   28 ar
  48   26   27 1
  49   26   31 ar
  50   28   29 ar
  51   28   49 1
  52   29   30 ar
  53   29   50 1
  54   30   31 ar
  55   30   51 1
  56   31   52 1

#	End of record

