#	Name: ASD05380315
#	Creating user name:	WinNT
#	Creation time:	15. 06. 2019 20:59

#	Modifying user name:	WinNT
#	Modification time:	15. 06. 2019 20:59

#	Program:	/corina/corina34_cracker 3.40 0067  02.08.2006

@<TRIPOS>MOLECULE
ASD05380315
  78   79    0    0    0
SMALL
NO_CHARGES


@<TRIPOS>ATOM
   1 O1            -0.0177     1.4528     0.0100 O.3     
   2 C2             0.0021    -0.0041     0.0020 C.3     
   3 C3             1.5020    -0.3567    -0.0142 C.3     
   4 N4             2.1699     0.9539    -0.0135 N.am    
   5 C5             1.2373     1.9159     0.0005 C.2     
   6 C6            -0.6788    -0.5349    -1.2332 C.ar    
   7 C7            -1.4703    -1.6657    -1.1530 C.ar    
   8 C8            -2.0956    -2.1542    -2.2838 C.ar    
   9 C9            -1.9286    -1.5092    -3.5007 C.ar    
  10 C10           -1.1339    -0.3748    -3.5785 C.ar    
  11 C11           -0.5154     0.1130    -2.4437 C.ar    
  12 O12           -2.5423    -1.9881    -4.6147 O.3     
  13 C13           -2.3255    -1.2732    -5.8329 C.3     
  14 O14           -3.5732    -1.8288    -9.3328 O.3     
  15 Si15          -3.4019    -1.0992   -10.7813 Si      
  16 O16            1.5068     3.1008     0.0035 O.2     
  17 C17            1.8803    -1.1534     1.2360 C.3     
  18 O18            3.2449    -1.5673     1.1422 O.3     
  19 Si19           3.7661    -2.4298     2.4247 Si      
  20 C20            2.7345    -3.9715     2.5968 C.3     
  21 C21            5.5505    -2.9016     2.1719 C.3     
  22 C22            3.6086    -1.4014     3.9701 C.3     
  23 C23            6.3977    -1.6354     2.0304 C.3     
  24 C24            6.0395    -3.7107     3.3749 C.3     
  25 C25            5.6799    -3.7462     0.9027 C.3     
  26 C26           -4.0278     0.6522   -10.6724 C.3     
  27 C27           -1.6018    -1.0866   -11.2612 C.3     
  28 C28           -4.3803    -2.0296   -12.0650 C.3     
  29 C29           -5.8586    -2.0399   -11.6708 C.3     
  30 C30           -4.2195    -1.3451   -13.4238 C.3     
  31 C31           -3.8663    -3.4679   -12.1544 C.3     
  32 C32           -3.0907    -1.9563    -6.9681 C.3     
  33 C33           -2.8586    -1.1908    -8.2724 C.3     
  34 H34           -0.4733    -0.3976     0.9005 H       
  35 H35            1.7544    -0.9146    -0.9159 H       
  36 H36            3.1291     1.0981    -0.0216 H       
  37 H37           -1.5997    -2.1676    -0.2055 H       
  38 H38           -2.7135    -3.0377    -2.2207 H       
  39 H39           -1.0024     0.1291    -4.5247 H       
  40 H40            0.1031     0.9964    -2.5037 H       
  41 H41           -2.6800    -0.2486    -5.7208 H       
  42 H42           -1.2606    -1.2659    -6.0653 H       
  43 H43            1.7504    -0.5274     2.1189 H       
  44 H44            1.2390    -2.0311     1.3154 H       
  45 H45            2.8267    -4.5732     1.6926 H       
  46 H46            3.0829    -4.5479     3.4539 H       
  47 H47            1.6905    -3.6955     2.7447 H       
  48 H48            2.5646    -1.1254     4.1180 H       
  49 H49            3.9569    -1.9778     4.8271 H       
  50 H50            4.2121    -0.4994     3.8694 H       
  51 H51            6.3056    -1.0337     2.9347 H       
  52 H52            7.4418    -1.9115     1.8825 H       
  53 H53            6.0494    -1.0590     1.1734 H       
  54 H54            5.4360    -4.6127     3.4756 H       
  55 H55            7.0836    -3.9867     3.2270 H       
  56 H56            5.9474    -3.1090     4.2791 H       
  57 H57            5.3316    -3.1698     0.0456 H       
  58 H58            6.7239    -4.0222     0.7547 H       
  59 H59            5.0763    -4.6482     1.0034 H       
  60 H60           -3.4553     1.1965    -9.9214 H       
  61 H61           -3.9132     1.1398   -11.6405 H       
  62 H62           -5.0810     0.6448   -10.3916 H       
  63 H63           -1.2356    -2.1112   -11.3250 H       
  64 H64           -1.4873    -0.5989   -12.2293 H       
  65 H65           -1.0293    -0.5422   -10.5102 H       
  66 H66           -6.2248    -1.0153   -11.6071 H       
  67 H67           -6.4311    -2.5843   -12.4219 H       
  68 H68           -5.9732    -2.5276   -10.7028 H       
  69 H69           -3.1663    -1.3378   -13.7046 H       
  70 H70           -4.7920    -1.8895   -14.1749 H       
  71 H71           -4.5857    -0.3205   -13.3601 H       
  72 H72           -3.9808    -3.9555   -11.1863 H       
  73 H73           -4.4387    -4.0123   -12.9055 H       
  74 H74           -2.8131    -3.4605   -12.4352 H       
  75 H75           -2.7362    -2.9809    -7.0802 H       
  76 H76           -4.1556    -1.9636    -6.7357 H       
  77 H77           -1.7937    -1.1835    -8.5049 H       
  78 H78           -3.2131    -0.1662    -8.1604 H       
@<TRIPOS>BOND
   1    1    2 1
   2    1    5 1
   3    2    3 1
   4    2    6 1
   5    2   34 1
   6    3    4 1
   7    3   17 1
   8    3   35 1
   9    4    5 am
  10    4   36 1
  11    5   16 2
  12    6    7 ar
  13    6   11 ar
  14    7    8 ar
  15    7   37 1
  16    8    9 ar
  17    8   38 1
  18    9   10 ar
  19    9   12 1
  20   10   11 ar
  21   10   39 1
  22   11   40 1
  23   12   13 1
  24   13   32 1
  25   13   41 1
  26   13   42 1
  27   14   15 1
  28   14   33 1
  29   15   26 1
  30   15   27 1
  31   15   28 1
  32   17   18 1
  33   17   43 1
  34   17   44 1
  35   18   19 1
  36   19   20 1
  37   19   21 1
  38   19   22 1
  39   20   45 1
  40   20   46 1
  41   20   47 1
  42   21   23 1
  43   21   24 1
  44   21   25 1
  45   22   48 1
  46   22   49 1
  47   22   50 1
  48   23   51 1
  49   23   52 1
  50   23   53 1
  51   24   54 1
  52   24   55 1
  53   24   56 1
  54   25   57 1
  55   25   58 1
  56   25   59 1
  57   26   60 1
  58   26   61 1
  59   26   62 1
  60   27   63 1
  61   27   64 1
  62   27   65 1
  63   28   29 1
  64   28   30 1
  65   28   31 1
  66   29   66 1
  67   29   67 1
  68   29   68 1
  69   30   69 1
  70   30   70 1
  71   30   71 1
  72   31   72 1
  73   31   73 1
  74   31   74 1
  75   32   33 1
  76   32   75 1
  77   32   76 1
  78   33   77 1
  79   33   78 1

#	End of record

