#	Name: ASD00431251
#	Creating user name:	WinNT
#	Creation time:	15. 06. 2019 18:35

#	Modifying user name:	WinNT
#	Modification time:	15. 06. 2019 18:35

#	Program:	/corina/corina34_cracker 3.40 0067  02.08.2006

@<TRIPOS>MOLECULE
ASD00431251
  44   46    0    0    0
SMALL
NO_CHARGES


@<TRIPOS>ATOM
   1 S1            -0.2769     1.7102     0.0577 S.3     
   2 C2            -0.1919     0.0032     0.0273 C.2     
   3 N3             1.0391    -0.3851    -0.0913 N.2     
   4 C4             1.9601     0.5534    -0.1639 C.2     
   5 C5             1.4746     1.8125    -0.1025 C.2     
   6 O6            -1.2597    -0.8263     0.1149 O.3     
   7 C7            -1.0440    -2.1613    -0.0250 C.ar    
   8 C8            -0.3220    -2.8521     0.9374 C.ar    
   9 C9            -0.1030    -4.2083     0.7951 C.ar    
  10 C10           -0.6044    -4.8797    -0.3102 C.ar    
  11 C11           -1.3259    -4.1891    -1.2728 C.ar    
  12 C12           -1.5508    -2.8341    -1.1274 C.ar    
  13 O13           -0.3883    -6.2148    -0.4504 O.3     
  14 C14           -1.0004    -6.8569    -1.5707 C.3     
  15 C15           -0.2389    -8.1423    -1.9005 C.3     
  16 C16           -2.4532    -7.1974    -1.2323 C.3     
  17 C17            2.2688     3.0514    -0.1599 C.2     
  18 C18            1.7667     4.3033    -0.0971 C.2     
  19 C19            2.7118     5.3066    -0.1710 C.2     
  20 C20            3.9740     4.8877    -0.2929 C.2     
  21 S21            4.0193     3.1299    -0.3132 S.3     
  22 C22            5.1794     5.7867    -0.3923 C.3     
  23 C23            5.8664     5.8712     0.9722 C.3     
  24 F24            6.2699     4.5925     1.3712 F       
  25 F25            6.9854     6.7058     0.8800 F       
  26 F26            4.9720     6.3928     1.9131 F       
  27 N27            6.1160     5.2405    -1.3775 N.2     
  28 N28            7.0405     5.8169    -1.6539 N.1     
  29 N29            7.9650     6.3934    -1.9302 N.pl3   
  30 H30            3.0131     0.3352    -0.2639 H       
  31 H31            0.0690    -2.3292     1.7977 H       
  32 H32            0.4591    -4.7460     1.5444 H       
  33 H33           -1.7160    -4.7119    -2.1336 H       
  34 H34           -2.1170    -2.2974    -1.8742 H       
  35 H35           -0.9749    -6.1885    -2.4313 H       
  36 H36           -0.2645    -8.8108    -1.0399 H       
  37 H37           -0.7058    -8.6321    -2.7550 H       
  38 H38            0.7961    -7.8998    -2.1416 H       
  39 H39           -2.9201    -7.6872    -2.0868 H       
  40 H40           -2.4787    -7.8658    -0.3717 H       
  41 H41           -2.9957    -6.2817    -0.9973 H       
  42 H42            0.7102     4.5036     0.0027 H       
  43 H43            2.4497     6.3537    -0.1334 H       
  44 H44            4.8650     6.7830    -0.7032 H       
@<TRIPOS>BOND
   1    1    2 1
   2    1    5 1
   3    2    3 2
   4    2    6 1
   5    3    4 1
   6    4    5 2
   7    4   30 1
   8    5   17 1
   9    6    7 1
  10    7    8 ar
  11    7   12 ar
  12    8    9 ar
  13    8   31 1
  14    9   10 ar
  15    9   32 1
  16   10   11 ar
  17   10   13 1
  18   11   12 ar
  19   11   33 1
  20   12   34 1
  21   13   14 1
  22   14   15 1
  23   14   16 1
  24   14   35 1
  25   15   36 1
  26   15   37 1
  27   15   38 1
  28   16   39 1
  29   16   40 1
  30   16   41 1
  31   17   18 2
  32   17   21 1
  33   18   19 1
  34   18   42 1
  35   19   20 2
  36   19   43 1
  37   20   21 1
  38   20   22 1
  39   22   23 1
  40   22   27 1
  41   22   44 1
  42   23   24 1
  43   23   25 1
  44   23   26 1
  45   27   28 2
  46   28   29 2

#	End of record

