#	Name: ASD04230117
#	Creating user name:	WinNT
#	Creation time:	15. 06. 2019 20:48

#	Modifying user name:	WinNT
#	Modification time:	15. 06. 2019 20:48

#	Program:	/corina/corina34_cracker 3.40 0067  02.08.2006

@<TRIPOS>MOLECULE
ASD04230117
  47   50    0    0    0
SMALL
NO_CHARGES


@<TRIPOS>ATOM
   1 C1            -0.0201     1.3790     0.0495 C.ar    
   2 C2            -0.0003    -0.0082     0.0381 C.ar    
   3 C3             1.1848    -0.6863     0.0294 C.ar    
   4 C4             2.3957     0.0212     0.0423 C.ar    
   5 C5             2.3815     1.4276     0.0207 C.ar    
   6 C6             1.1610     2.0997     0.0379 C.ar    
   7 C7             3.6343    -0.6710     0.0722 C.2     
   8 C8             4.7886     0.0708     0.2855 C.2     
   9 C9             4.6293     1.5213     0.4960 C.2     
  10 O10            3.5429     2.1221    -0.0388 O.3     
  11 C11            6.1166    -0.5650     0.3013 C.2     
  12 N12            7.2188     0.1818     0.5109 N.am    
  13 O13            6.2189    -1.7642     0.1252 O.2     
  14 C14            8.4676    -0.4350     0.6381 C.ar    
  15 C15            9.6061     0.1931     0.1483 C.ar    
  16 C16           10.8419    -0.4134     0.2723 C.ar    
  17 C17           10.9521    -1.6461     0.8837 C.ar    
  18 C18            9.8153    -2.2834     1.3785 C.ar    
  19 C19            8.5708    -1.6713     1.2584 C.ar    
  20 C20            9.9321    -3.6088     2.0356 C.ar    
  21 O21            5.4494     2.1572     1.1312 O.2     
  22 C22           11.1734    -4.2357     2.1686 C.ar    
  23 N23           11.2356    -5.4159     2.7600 N.ar    
  24 C24           10.1430    -6.0026     3.2223 C.ar    
  25 N25            8.9492    -5.4412     3.1155 N.ar    
  26 C26            8.8043    -4.2592     2.5423 C.ar    
  27 O27           10.2495    -7.2126     3.8216 O.3     
  28 C28            9.0425    -7.8059     4.3045 C.3     
  29 O29            1.1309     3.4591     0.0434 O.3     
  30 C30           -0.1564     4.0794     0.0612 C.3     
  31 H31           -0.9655     1.9009     0.0629 H       
  32 H32           -0.9306    -0.5567     0.0365 H       
  33 H33            1.1898    -1.7661     0.0130 H       
  34 H34            3.6777    -1.7412    -0.0663 H       
  35 H35            7.1460     1.1470     0.5735 H       
  36 H36            9.5252     1.1576    -0.3309 H       
  37 H37           11.7238     0.0784    -0.1106 H       
  38 H38           11.9193    -2.1171     0.9785 H       
  39 H39            7.6872    -2.1611     1.6402 H       
  40 H40           12.0690    -3.7630     1.7934 H       
  41 H41            7.8272    -3.8068     2.4588 H       
  42 H42            8.5872    -7.1504     5.0469 H       
  43 H43            8.3511    -7.9501     3.4743 H       
  44 H44            9.2687    -8.7697     4.7607 H       
  45 H45           -0.7174     3.7775    -0.8232 H       
  46 H46           -0.6960     3.7708     0.9566 H       
  47 H47           -0.0376     5.1629     0.0639 H       
@<TRIPOS>BOND
   1    1    2 ar
   2    1    6 ar
   3    1   31 1
   4    2    3 ar
   5    2   32 1
   6    3    4 ar
   7    3   33 1
   8    4    5 ar
   9    4    7 1
  10    5    6 ar
  11    5   10 1
  12    6   29 1
  13    7    8 2
  14    7   34 1
  15    8    9 1
  16    8   11 1
  17    9   10 1
  18    9   21 2
  19   11   12 am
  20   11   13 2
  21   12   14 1
  22   12   35 1
  23   14   15 ar
  24   14   19 ar
  25   15   16 ar
  26   15   36 1
  27   16   17 ar
  28   16   37 1
  29   17   18 ar
  30   17   38 1
  31   18   19 ar
  32   18   20 1
  33   19   39 1
  34   20   22 ar
  35   20   26 ar
  36   22   23 ar
  37   22   40 1
  38   23   24 ar
  39   24   25 ar
  40   24   27 1
  41   25   26 ar
  42   26   41 1
  43   27   28 1
  44   28   42 1
  45   28   43 1
  46   28   44 1
  47   29   30 1
  48   30   45 1
  49   30   46 1
  50   30   47 1

#	End of record

