#	Name: ASD00450066
#	Creating user name:	WinNT
#	Creation time:	15. 06. 2019 18:36

#	Modifying user name:	WinNT
#	Modification time:	15. 06. 2019 18:36

#	Program:	/corina/corina34_cracker 3.40 0067  02.08.2006

@<TRIPOS>MOLECULE
ASD00450066
  52   54    0    0    0
SMALL
NO_CHARGES


@<TRIPOS>ATOM
   1 C1            -0.1972     1.4561     0.2878 C.ar    
   2 C2            -0.3570     0.0620     0.3146 C.ar    
   3 C3             0.7496    -0.7543     0.4746 C.ar    
   4 C4             2.0127    -0.2002     0.6087 C.ar    
   5 C5             2.1828     1.1736     0.5843 C.ar    
   6 C6             1.0877     2.0093     0.4241 C.ar    
   7 C7            -1.3652     2.3317     0.1123 C.2     
   8 O8            -1.9791     2.7290     1.0846 O.2     
   9 N9            -1.7557     2.6942    -1.1256 N.am    
  10 N10            1.2599     3.3877     0.3993 N.pl3   
  11 C11            2.3395     3.9699     1.0722 C.ar    
  12 C12            2.7566     5.2547     0.7405 C.ar    
  13 C13            2.9933     3.2689     2.0766 C.ar    
  14 C14            4.0586     3.8464     2.7398 C.ar    
  15 C15            4.4753     5.1222     2.4048 C.ar    
  16 C16            3.8238     5.8267     1.4084 C.ar    
  17 F17            3.0856    -1.0063     0.7647 F       
  18 F18            2.1204     5.9424    -0.2330 F       
  19 I19            6.0916     5.9925     3.4142 I       
  20 O20           -1.5920    -0.4838     0.1846 O.3     
  21 C21           -1.7139    -1.8289     0.3342 C.ar    
  22 C22           -1.7008    -2.3912     1.6029 C.ar    
  23 C23           -1.8249    -3.7586     1.7522 C.ar    
  24 C24           -1.8574    -2.6419    -0.7808 C.ar    
  25 C25           -1.9812    -4.0092    -0.6259 C.ar    
  26 C26           -1.9621    -4.5673     0.6388 C.ar    
  27 C27           -1.8103    -4.3699     3.1296 C.3     
  28 N28           -2.8036    -5.4446     3.1974 N.am    
  29 S29           -3.6399    -5.7116     4.6016 S.o2    
  30 O30           -4.5368    -6.7816     4.3372 O.2     
  31 O31           -2.6741    -5.7465     5.6434 O.2     
  32 N32           -4.5762    -4.3737     4.8766 N.am    
  33 C33           -0.4207    -4.9409     3.4194 C.3     
  34 H34            0.6279    -1.8272     0.4954 H       
  35 H35            3.1712     1.5957     0.6903 H       
  36 H36           -1.2662     2.3774    -1.9008 H       
  37 H37           -2.5263     3.2719    -1.2414 H       
  38 H38            0.6317     3.9463    -0.0845 H       
  39 H39            2.6689     2.2728     2.3395 H       
  40 H40            4.5668     3.3010     3.5213 H       
  41 H41            4.1488     6.8242     1.1519 H       
  42 H42           -1.5933    -1.7601     2.4727 H       
  43 H43           -1.8727    -2.2063    -1.7689 H       
  44 H44           -2.0929    -4.6425    -1.4935 H       
  45 H45           -2.0586    -5.6364     0.7577 H       
  46 H46           -2.0505    -3.6058     3.8688 H       
  47 H47           -2.9715    -5.9997     2.4199 H       
  48 H48           -4.5534    -3.6297     4.2546 H       
  49 H49           -5.1473    -4.3340     5.6596 H       
  50 H50            0.3184    -4.1413     3.3689 H       
  51 H51           -0.4101    -5.3831     4.4156 H       
  52 H52           -0.1804    -5.7050     2.6802 H       
@<TRIPOS>BOND
   1    1    2 ar
   2    1    6 ar
   3    1    7 1
   4    2    3 ar
   5    2   20 1
   6    3    4 ar
   7    3   34 1
   8    4    5 ar
   9    4   17 1
  10    5    6 ar
  11    5   35 1
  12    6   10 1
  13    7    8 2
  14    7    9 am
  15    9   36 1
  16    9   37 1
  17   10   11 1
  18   10   38 1
  19   11   13 ar
  20   11   12 ar
  21   12   16 ar
  22   12   18 1
  23   13   14 ar
  24   13   39 1
  25   14   15 ar
  26   14   40 1
  27   15   16 ar
  28   15   19 1
  29   16   41 1
  30   20   21 1
  31   21   22 ar
  32   21   24 ar
  33   22   23 ar
  34   22   42 1
  35   23   26 ar
  36   23   27 1
  37   24   25 ar
  38   24   43 1
  39   25   26 ar
  40   25   44 1
  41   26   45 1
  42   27   28 1
  43   27   33 1
  44   27   46 1
  45   28   29 am
  46   28   47 1
  47   29   30 2
  48   29   31 2
  49   29   32 am
  50   32   48 1
  51   32   49 1
  52   33   50 1
  53   33   51 1
  54   33   52 1

#	End of record

