#	Name: ASD01028667
#	Creating user name:	WinNT
#	Creation time:	15. 06. 2019 18:57

#	Modifying user name:	WinNT
#	Modification time:	15. 06. 2019 18:57

#	Program:	/corina/corina34_cracker 3.40 0067  02.08.2006

@<TRIPOS>MOLECULE
ASD01028667
  12   12    0    0    0
SMALL
NO_CHARGES


@<TRIPOS>ATOM
   1 C1            -0.0173     1.4248     0.0099 C.3     
   2 O2             0.0021    -0.0041     0.0020 O.3     
   3 S3             3.3386     3.3953    -0.0107 S.3     
   4 N4             1.6515     3.2220     0.0041 N.2     
   5 C5             1.3965     1.9464    -0.0008 C.2     
   6 C6             2.4794     1.0944    -0.0158 C.2     
   7 C7             3.6837     1.7098    -0.0235 C.2     
   8 Br8            5.3878     0.8904    -0.0435 Br      
   9 H9            -0.5445     1.7859    -0.8732 H       
  10 H10           -0.5275     1.7763     0.9067 H       
  11 H11           -0.8759    -0.4094     0.0082 H       
  12 H12            2.3746     0.0195    -0.0206 H       
@<TRIPOS>BOND
   1    1    2 1
   2    1    5 1
   3    1    9 1
   4    1   10 1
   5    2   11 1
   6    3    4 1
   7    3    7 1
   8    4    5 2
   9    5    6 1
  10    6    7 2
  11    6   12 1
  12    7    8 1

#	End of record

