#	Name: ASD07301019
#	Creating user name:	WinNT
#	Creation time:	15. 06. 2019 21:10

#	Modifying user name:	WinNT
#	Modification time:	15. 06. 2019 21:10

#	Program:	/corina/corina34_cracker 3.40 0067  02.08.2006

@<TRIPOS>MOLECULE
ASD07301019
  36   36    0    0    0
SMALL
NO_CHARGES


@<TRIPOS>ATOM
   1 C1            -0.0341     1.4626    -0.1357 C.2     
   2 C2            -0.0011    -0.0025    -0.0193 C.2     
   3 C3             1.2780    -0.7089    -0.0453 C.2     
   4 C4             1.3119    -2.2108     0.0740 C.3     
   5 O5             1.0028     2.0970    -0.1227 O.2     
   6 O6            -1.2141     2.1023    -0.2624 O.3     
   7 O7             2.3131    -0.0859    -0.1631 O.2     
   8 O8             2.6668    -2.6623     0.0224 O.3     
   9 C9             2.8114    -4.0800     0.1277 C.3     
  10 N10           -1.1286    -0.6812     0.1090 N.2     
  11 N11           -2.2376    -0.0560     0.3171 N.pl3   
  12 C12           -3.4438    -0.7585     0.3261 C.ar    
  13 C13           -4.6415    -0.0844     0.5507 C.ar    
  14 C14           -5.8343    -0.7820     0.5586 C.ar    
  15 C15           -5.8378    -2.1530     0.3428 C.ar    
  16 C16           -4.6444    -2.8249     0.1190 C.ar    
  17 C17           -3.4514    -2.1303     0.1052 C.ar    
  18 O18           -7.0115    -2.8384     0.3512 O.3     
  19 C19           -6.9416    -4.2472     0.1222 C.3     
  20 F20           -6.1519    -4.8419     1.1120 F       
  21 F21           -8.2300    -4.7909     0.1643 F       
  22 F22           -6.3747    -4.4879    -1.1339 F       
  23 F23           -4.6373     1.2502     0.7611 F       
  24 C24           -1.1709     3.5495    -0.3725 C.3     
  25 H25            0.8651    -2.5101     1.0220 H       
  26 H26            0.7499    -2.6534    -0.7484 H       
  27 H27            3.8684    -4.3419     0.0801 H       
  28 H28            2.3956    -4.4181     1.0769 H       
  29 H29            2.2805    -4.5614    -0.6936 H       
  30 H30           -2.2333     0.9023     0.4674 H       
  31 H31           -6.7638    -0.2604     0.7330 H       
  32 H32           -4.6492    -3.8918    -0.0484 H       
  33 H33           -2.5237    -2.6537    -0.0732 H       
  34 H34           -0.7053     3.9680     0.5198 H       
  35 H35           -0.5899     3.8299    -1.2510 H       
  36 H36           -2.1852     3.9370    -0.4687 H       
@<TRIPOS>BOND
   1    1    2 1
   2    1    5 2
   3    1    6 1
   4    2    3 1
   5    2   10 2
   6    3    4 1
   7    3    7 2
   8    4    8 1
   9    4   25 1
  10    4   26 1
  11    6   24 1
  12    8    9 1
  13    9   27 1
  14    9   28 1
  15    9   29 1
  16   10   11 1
  17   11   12 1
  18   11   30 1
  19   12   13 ar
  20   12   17 ar
  21   13   14 ar
  22   13   23 1
  23   14   15 ar
  24   14   31 1
  25   15   16 ar
  26   15   18 1
  27   16   17 ar
  28   16   32 1
  29   17   33 1
  30   18   19 1
  31   19   20 1
  32   19   21 1
  33   19   22 1
  34   24   34 1
  35   24   35 1
  36   24   36 1

#	End of record

