#	Name: ASD02198094
#	Creating user name:	WinNT
#	Creation time:	15. 06. 2019 20:18

#	Modifying user name:	WinNT
#	Modification time:	15. 06. 2019 20:18

#	Program:	/corina/corina34_cracker 3.40 0067  02.08.2006

@<TRIPOS>MOLECULE
ASD02198094
  51   52    0    0    0
SMALL
NO_CHARGES


@<TRIPOS>ATOM
   1 C1            -0.0210     1.3616    -0.2532 C.2     
   2 C2             0.0018    -0.0165    -0.2055 C.2     
   3 C3            -1.1842    -0.8183    -0.2366 C.1     
   4 S4             1.5595     1.9984    -0.1971 S.3     
   5 C5             2.2728     0.3960    -0.1080 C.2     
   6 C6             1.2827    -0.5582    -0.1243 C.2     
   7 C7             3.6525     0.1283    -0.0317 C.2     
   8 C8             4.6286     1.2349    -0.1472 C.ar    
   9 O9             4.0436    -1.0153     0.1296 O.2     
  10 N10            1.5335    -1.9199    -0.0656 N.pl3   
  11 N11           -1.1646     2.1200    -0.3402 N.pl3   
  12 N12           -2.1251    -1.4544    -0.2612 N.1     
  13 C13            4.8980     1.8043    -1.3921 C.ar    
  14 C14           -1.0728     3.5815    -0.3845 C.3     
  15 C15           -0.8419     4.0274    -1.8054 C.2     
  16 C16           -2.3764     4.1904     0.1357 C.3     
  17 C17           -2.5481     3.8403     1.6152 C.3     
  18 C18            5.8091     2.8357    -1.4930 C.ar    
  19 C19            6.4551     3.3049    -0.3633 C.ar    
  20 C20            6.1927     2.7441     0.8742 C.ar    
  21 C21            5.2791     1.7170     0.9895 C.ar    
  22 C22            7.4494     4.4313    -0.4810 C.3     
  23 C23            4.1959     1.2937    -2.6239 C.3     
  24 S24           -4.0937     4.5623     2.2320 S.3     
  25 O25           -0.7623     3.2085    -2.6902 O.2     
  26 O26           -0.7248     5.3344    -2.0880 O.3     
  27 C27           -0.5036     5.6910    -3.4781 C.3     
  28 C28           -4.1192     4.0471     3.9711 C.3     
  29 H29            2.4464    -2.2430    -0.0095 H       
  30 H30            0.7962    -2.5500    -0.0805 H       
  31 H31           -2.0322     1.6874    -0.3723 H       
  32 H32           -0.2427     3.9125     0.2395 H       
  33 H33           -2.3429     5.2738     0.0202 H       
  34 H34           -3.2164     3.7903    -0.4322 H       
  35 H35           -2.5816     2.7570     1.7307 H       
  36 H36           -1.7081     4.2405     2.1831 H       
  37 H37            6.0185     3.2773    -2.4561 H       
  38 H38            6.7009     3.1144     1.7523 H       
  39 H39            5.0751     1.2801     1.9559 H       
  40 H40            6.9345     5.3844    -0.3609 H       
  41 H41            8.2086     4.3282     0.2943 H       
  42 H42            7.9242     4.3958    -1.4615 H       
  43 H43            3.2290     1.7874    -2.7219 H       
  44 H44            4.8036     1.5071    -3.5032 H       
  45 H45            4.0472     0.2174    -2.5375 H       
  46 H46           -0.4274     6.7747    -3.5674 H       
  47 H47            0.4207     5.2316    -3.8284 H       
  48 H48           -1.3382     5.3345    -4.0818 H       
  49 H49           -3.2400     4.4420     4.4800 H       
  50 H50           -5.0196     4.4310     4.4506 H       
  51 H51           -4.1134     2.9585     4.0277 H       
@<TRIPOS>BOND
   1    1    2 2
   2    1    4 1
   3    1   11 1
   4    2    3 1
   5    2    6 1
   6    3   12 3
   7    4    5 1
   8    5    6 2
   9    5    7 1
  10    6   10 1
  11    7    8 1
  12    7    9 2
  13    8   13 ar
  14    8   21 ar
  15   10   29 1
  16   10   30 1
  17   11   14 1
  18   11   31 1
  19   13   18 ar
  20   13   23 1
  21   14   15 1
  22   14   16 1
  23   14   32 1
  24   15   25 2
  25   15   26 1
  26   16   17 1
  27   16   33 1
  28   16   34 1
  29   17   24 1
  30   17   35 1
  31   17   36 1
  32   18   19 ar
  33   18   37 1
  34   19   20 ar
  35   19   22 1
  36   20   21 ar
  37   20   38 1
  38   21   39 1
  39   22   40 1
  40   22   41 1
  41   22   42 1
  42   23   43 1
  43   23   44 1
  44   23   45 1
  45   24   28 1
  46   26   27 1
  47   27   46 1
  48   27   47 1
  49   27   48 1
  50   28   49 1
  51   28   50 1
  52   28   51 1

#	End of record

