#	Name: ASD01940577
#	Creating user name:	WinNT
#	Creation time:	15. 06. 2019 20:12

#	Modifying user name:	WinNT
#	Modification time:	15. 06. 2019 20:12

#	Program:	/corina/corina34_cracker 3.40 0067  02.08.2006

@<TRIPOS>MOLECULE
ASD01940577
  38   39    0    0    0
SMALL
NO_CHARGES


@<TRIPOS>ATOM
   1 C1            -1.0602     1.9177     1.9499 C.3     
   2 C2            -0.7891     0.4586     1.5777 C.3     
   3 O3             0.1810     2.6112     2.0934 O.3     
   4 C4            -2.1156    -0.2523     1.3022 C.3     
   5 N5            -1.8560    -1.6494     0.9458 N.am    
   6 C6            -2.8831    -2.4738     0.6594 C.2     
   7 C7            -2.6213    -3.8826     0.3000 C.ar    
   8 C8            -1.3281    -4.4143     0.3646 C.ar    
   9 C9            -1.1280    -5.7349     0.0207 C.ar    
  10 N10           -2.1320    -6.4990    -0.3658 N.ar    
  11 C11           -3.3657    -6.0487    -0.4437 C.ar    
  12 C12           -3.6647    -4.7303    -0.1112 C.ar    
  13 N13           -4.9694    -4.2596    -0.1894 N.pl3   
  14 C14           -5.3649    -3.4720    -1.2757 C.ar    
  15 C15           -4.4881    -3.2484    -2.3289 C.ar    
  16 C16           -4.8813    -2.4702    -3.4003 C.ar    
  17 C17           -6.1473    -1.9132    -3.4258 C.ar    
  18 C18           -7.0244    -2.1330    -2.3789 C.ar    
  19 C19           -6.6394    -2.9157    -1.3059 C.ar    
  20 F20           -7.4979    -3.1354    -0.2862 F       
  21 I21           -6.7373    -0.7333    -5.0533 I       
  22 O22           -4.0248    -2.0581     0.6967 O.2     
  23 O23           -0.1157    -0.1912     2.6576 O.3     
  24 H24           -1.6511     2.3892     1.1646 H       
  25 H25           -1.6091     1.9567     2.8907 H       
  26 H26           -0.1647     0.4213     0.6851 H       
  27 H27            0.0853     3.5440     2.3295 H       
  28 H28           -2.7401    -0.2150     2.1948 H       
  29 H29           -2.6293     0.2433     0.4784 H       
  30 H30           -0.9450    -1.9811     0.9161 H       
  31 H31           -0.4982    -3.7988     0.6791 H       
  32 H32           -0.1324    -6.1507     0.0682 H       
  33 H33           -4.1561    -6.7105    -0.7655 H       
  34 H34           -5.6061    -4.4771     0.5093 H       
  35 H35           -3.4993    -3.6824    -2.3102 H       
  36 H36           -4.1991    -2.2961    -4.2193 H       
  37 H37           -8.0121    -1.6967    -2.4017 H       
  38 H38           -0.6144    -0.1960     3.4862 H       
@<TRIPOS>BOND
   1    1    2 1
   2    1    3 1
   3    1   24 1
   4    1   25 1
   5    2    4 1
   6    2   23 1
   7    2   26 1
   8    3   27 1
   9    4    5 1
  10    4   28 1
  11    4   29 1
  12    5    6 am
  13    5   30 1
  14    6    7 1
  15    6   22 2
  16    7    8 ar
  17    7   12 ar
  18    8    9 ar
  19    8   31 1
  20    9   10 ar
  21    9   32 1
  22   10   11 ar
  23   11   12 ar
  24   11   33 1
  25   12   13 1
  26   13   14 1
  27   13   34 1
  28   14   15 ar
  29   14   19 ar
  30   15   16 ar
  31   15   35 1
  32   16   17 ar
  33   16   36 1
  34   17   18 ar
  35   17   21 1
  36   18   19 ar
  37   18   37 1
  38   19   20 1
  39   23   38 1

#	End of record

