#	Name: ASD04860002
#	Creating user name:	WinNT
#	Creation time:	15. 06. 2019 20:52

#	Modifying user name:	WinNT
#	Modification time:	15. 06. 2019 20:52

#	Program:	/corina/corina34_cracker 3.40 0067  02.08.2006

@<TRIPOS>MOLECULE
ASD04860002
  44   46    0    0    0
SMALL
NO_CHARGES


@<TRIPOS>ATOM
   1 C1            -0.0484     1.0615    -0.1984 C.ar    
   2 C2            -0.1063    -0.3261    -0.2582 C.ar    
   3 C3             1.0575    -1.0671    -0.3324 C.ar    
   4 C4             2.2845    -0.4337    -0.3475 C.ar    
   5 C5             2.3521     0.9570    -0.2883 C.ar    
   6 C6             1.1801     1.7049    -0.2136 C.ar    
   7 C7             3.5508    -1.2467    -0.4275 C.3     
   8 C8             3.6701     1.6389    -0.3040 C.ar    
   9 N9            -1.4182    -1.0116    -0.2420 N.pl3   
  10 O10           -1.4707    -2.2273    -0.2944 O.2     
  11 O11           -2.4450    -0.3599    -0.1762 O.2     
  12 N12           -1.2272     1.8077    -0.1288 N.am    
  13 S13           -1.3275     3.2709    -0.8978 S.o2    
  14 O14           -2.6738     3.7046    -0.7611 O.2     
  15 O15           -0.2156     4.0354    -0.4523 O.2     
  16 C16           -1.0719     2.9758    -2.6160 C.ar    
  17 C17            0.4178     2.7821    -4.4880 C.ar    
  18 C18            0.2080     3.0132    -3.1398 C.ar    
  19 C19           -2.1480     2.7022    -3.4349 C.ar    
  20 C20           -1.9436     2.4682    -4.7959 C.ar    
  21 C21           -0.6496     2.5127    -5.3190 C.ar    
  22 C22           -3.0910     2.1742    -5.6788 C.2     
  23 O23           -2.8903     1.9488    -6.9916 O.3     
  24 O24           -4.2155     2.1357    -5.2208 O.2     
  25 C25            4.5982     1.3629    -1.3059 C.ar    
  26 C26            3.9981     2.5724     0.6825 C.ar    
  27 C27            5.2404     3.1811     0.6236 C.ar    
  28 C28            6.1084     2.8487    -0.4000 C.ar    
  29 N29            5.7685     1.9672    -1.3207 N.ar    
  30 H30            1.0074    -2.1449    -0.3783 H       
  31 H31            1.2276     2.7829    -0.1672 H       
  32 H32            3.7773    -1.4648    -1.4712 H       
  33 H33            4.3732    -0.6825     0.0125 H       
  34 H34            3.4180    -2.1808     0.1184 H       
  35 H35           -1.9870     1.4688     0.3699 H       
  36 H36            1.4195     2.8132    -4.8905 H       
  37 H37            1.0473     3.2241    -2.4936 H       
  38 H38           -3.1462     2.6689    -3.0239 H       
  39 H39           -0.4845     2.3325    -6.3710 H       
  40 H40           -3.6718     1.7606    -7.5292 H       
  41 H41            4.3559     0.6468    -2.0772 H       
  42 H42            3.3003     2.8134     1.4708 H       
  43 H43            5.5280     3.9078     1.3689 H       
  44 H44            7.0782     3.3215    -0.4492 H       
@<TRIPOS>BOND
   1    1    2 ar
   2    1    6 ar
   3    1   12 1
   4    2    3 ar
   5    2    9 1
   6    3    4 ar
   7    3   30 1
   8    4    5 ar
   9    4    7 1
  10    5    6 ar
  11    5    8 1
  12    6   31 1
  13    7   32 1
  14    7   33 1
  15    7   34 1
  16    8   26 ar
  17    8   25 ar
  18    9   10 2
  19    9   11 2
  20   12   13 am
  21   12   35 1
  22   13   14 2
  23   13   15 2
  24   13   16 1
  25   16   19 ar
  26   16   18 ar
  27   17   18 ar
  28   17   21 ar
  29   17   36 1
  30   18   37 1
  31   19   20 ar
  32   19   38 1
  33   20   21 ar
  34   20   22 1
  35   21   39 1
  36   22   23 1
  37   22   24 2
  38   23   40 1
  39   25   29 ar
  40   25   41 1
  41   26   27 ar
  42   26   42 1
  43   27   28 ar
  44   27   43 1
  45   28   29 ar
  46   28   44 1

#	End of record

