#	Name: ASD01148639
#	Creating user name:	WinNT
#	Creation time:	15. 06. 2019 19:02

#	Modifying user name:	WinNT
#	Modification time:	15. 06. 2019 19:02

#	Program:	/corina/corina34_cracker 3.40 0067  02.08.2006

@<TRIPOS>MOLECULE
ASD01148639
  56   59    0    0    0
SMALL
NO_CHARGES


@<TRIPOS>ATOM
   1 C1            -0.0169     1.4355    -0.0252 C.ar    
   2 C2             0.0192     0.0537    -0.0358 C.ar    
   3 C3            -1.1593    -0.6687    -0.0208 C.ar    
   4 C4            -2.3739    -0.0092     0.0054 C.ar    
   5 C5            -2.4100     1.3727     0.0170 C.ar    
   6 C6            -1.2314     2.0950     0.0064 C.ar    
   7 C7            -3.7342     2.0916     0.0451 C.3     
   8 O8            -4.7238     1.3228     0.7585 O.3     
   9 C9            -3.6497     3.3741     0.9066 C.3     
  10 C10           -4.1236     2.8913     2.2643 C.2     
  11 N11           -4.7055     1.7481     2.1068 N.2     
  12 C12           -3.9499     3.6026     3.5423 C.ar    
  13 C13           -4.4576     3.0207     4.7824 C.ar    
  14 C14           -3.2978     4.8274     3.5770 C.ar    
  15 C15           -3.1203     5.5170     4.7632 C.ar    
  16 C16           -3.5864     5.0135     5.9701 C.ar    
  17 C17           -4.2763     3.7259     5.9957 C.ar    
  18 C18           -3.3822     5.7704     7.2178 C.2     
  19 O19           -3.8832     5.3799     8.2548 O.2     
  20 N20           -2.6402     6.8955     7.2098 N.am    
  21 C21           -4.7627     3.1794     7.1899 C.ar    
  22 C22           -5.1166     1.7848     4.7954 C.ar    
  23 C23           -4.2092     2.4140    -1.3731 C.3     
  24 F24           -4.3418     1.2270    -2.1016 F       
  25 F25           -5.4458     3.0656    -1.3139 F       
  26 F26           -3.2742     3.2442    -2.0006 F       
  27 C27           -2.4488     7.6050     8.3794 C.2     
  28 N28           -2.9807     7.1905     9.4803 N.2     
  29 O29           -2.7844     7.9178    10.6793 O.3     
  30 C30           -3.4294     7.3451    11.8187 C.3     
  31 C31           -5.5741     1.2781     5.9754 C.ar    
  32 C32           -5.4003     1.9745     7.1685 C.ar    
  33 C33            1.2679     2.2230    -0.0416 C.3     
  34 F34            2.3544     1.3422    -0.0668 F       
  35 F35            1.3012     3.0373    -1.1788 F       
  36 F36            1.3407     3.0207     1.1054 F       
  37 C37           -1.1199    -2.1751    -0.0334 C.3     
  38 F38            0.2106    -2.6066    -0.0603 F       
  39 F39           -1.7468    -2.6676     1.1163 F       
  40 F40           -1.7871    -2.6495    -1.1679 F       
  41 H41            0.9682    -0.4615    -0.0563 H       
  42 H42           -3.2947    -0.5735     0.0165 H       
  43 H43           -1.2596     3.1746     0.0154 H       
  44 H44           -2.6232     3.7365     0.9615 H       
  45 H45           -4.3134     4.1462     0.5173 H       
  46 H46           -2.9204     5.2512     2.6581 H       
  47 H47           -2.6077     6.4676     4.7500 H       
  48 H48           -2.2405     7.2070     6.3826 H       
  49 H49           -4.6331     3.7090     8.1221 H       
  50 H50           -5.2617     1.2367     3.8761 H       
  51 H51           -1.8542     8.5066     8.3730 H       
  52 H52           -4.5041     7.2988    11.6428 H       
  53 H53           -3.0450     6.3390    11.9862 H       
  54 H54           -3.2310     7.9607    12.6961 H       
  55 H55           -6.0824     0.3252     5.9844 H       
  56 H56           -5.7750     1.5540     8.0899 H       
@<TRIPOS>BOND
   1    1    2 ar
   2    1   33 1
   3    1    6 ar
   4    2    3 ar
   5    2   41 1
   6    3    4 ar
   7    3   37 1
   8    4    5 ar
   9    4   42 1
  10    5    6 ar
  11    5    7 1
  12    6   43 1
  13    7    8 1
  14    7    9 1
  15    7   23 1
  16    8   11 1
  17    9   10 1
  18    9   44 1
  19    9   45 1
  20   10   11 2
  21   10   12 1
  22   12   13 ar
  23   12   14 ar
  24   13   22 ar
  25   13   17 ar
  26   14   15 ar
  27   14   46 1
  28   15   16 ar
  29   15   47 1
  30   16   17 ar
  31   16   18 1
  32   17   21 ar
  33   18   19 2
  34   18   20 am
  35   20   27 1
  36   20   48 1
  37   21   32 ar
  38   21   49 1
  39   22   31 ar
  40   22   50 1
  41   23   24 1
  42   23   25 1
  43   23   26 1
  44   27   28 2
  45   27   51 1
  46   28   29 1
  47   29   30 1
  48   30   52 1
  49   30   53 1
  50   30   54 1
  51   31   32 ar
  52   31   55 1
  53   32   56 1
  54   33   34 1
  55   33   35 1
  56   33   36 1
  57   37   38 1
  58   37   39 1
  59   37   40 1

#	End of record

