#	Name: ASD01028084
#	Creating user name:	WinNT
#	Creation time:	15. 06. 2019 18:56

#	Modifying user name:	WinNT
#	Modification time:	15. 06. 2019 18:56

#	Program:	/corina/corina34_cracker 3.40 0067  02.08.2006

@<TRIPOS>MOLECULE
ASD01028084
  80   85    0    0    0
SMALL
NO_CHARGES


@<TRIPOS>ATOM
   1 C1            -0.0836     1.3788     0.1744 C.3     
   2 C2            -0.0153    -0.1489     0.1792 C.3     
   3 C3            -0.5892    -0.6869     1.4898 C.3     
   4 C4             1.8370     2.2599     1.3169 C.2     
   5 N5             1.2960     1.9233     0.1039 N.am    
   6 N6             3.8190     2.6358     2.6818 N.3     
   7 N7             3.1336    -1.1394     4.3305 N.pl3   
   8 C8             4.1098    -0.3437     4.9034 C.ar    
   9 C9             4.2629     0.9388     4.3888 C.ar    
  10 C10            3.3582     1.3739     3.2653 C.3     
  11 C11            4.9091    -0.7675     5.9619 C.ar    
  12 C12            5.8690     0.0899     6.4806 C.ar    
  13 C13            6.0279     1.3631     5.9445 C.ar    
  14 C14            5.2238     1.7819     4.9017 C.ar    
  15 O15           -0.7594    -2.1020     1.4107 O.3     
  16 C16           -0.0137    -2.8638     2.2521 C.ar    
  17 C17            1.0186    -2.2743     2.9315 C.ar    
  18 C18            1.8021    -3.0485     3.7956 C.ar    
  19 C19            2.8841    -2.4666     4.5151 C.ar    
  20 N20            3.5863    -3.2508     5.3148 N.ar    
  21 O21            4.9398    -1.9417     6.6501 O.3     
  22 C22            5.9239    -1.8128     7.6811 C.3     
  23 O23            6.5231    -0.5259     7.5024 O.3     
  24 C24           -0.2950    -4.2250     2.4220 C.ar    
  25 C25            0.4700    -5.0030     3.2659 C.ar    
  26 C26            1.5356    -4.4262     3.9676 C.ar    
  27 N27            2.3206    -5.1285     4.8009 N.ar    
  28 C28            3.3026    -4.5374     5.4417 C.ar    
  29 O29           -1.3331    -4.7856     1.7486 O.3     
  30 C30           -1.5697    -6.1783     1.9638 C.3     
  31 O31            1.2125     2.0833     2.3415 O.2     
  32 C32            3.2214     2.8527     1.3556 C.3     
  33 C33            3.5369     3.7654     3.5776 C.3     
  34 C34            4.0910     2.1840     0.2891 C.3     
  35 C35           -2.7696    -6.6271     1.1273 C.3     
  36 C36           -3.0229    -8.1182     1.3577 C.3     
  37 N37           -4.1750    -8.5491     0.5546 N.3     
  38 C38           -4.3048   -10.0135     0.5628 C.3     
  39 C39           -5.5489   -10.4145    -0.2343 C.3     
  40 O40           -5.4500    -9.8871    -1.5600 O.3     
  41 C41           -5.3229    -8.4633    -1.6052 C.3     
  42 C42           -4.0766    -8.0425    -0.8220 C.3     
  43 H43           -0.6535     1.7158    -0.6915 H       
  44 H44           -0.5664     1.7253     1.0881 H       
  45 H45           -0.5936    -0.5404    -0.6576 H       
  46 H46            1.0231    -0.4657     0.0811 H       
  47 H47            0.0928    -0.4504     2.3066 H       
  48 H48           -1.5542    -0.2173     1.6810 H       
  49 H49            1.7751     2.0315    -0.7324 H       
  50 H50            2.5418    -0.6879     3.7085 H       
  51 H51            2.3469     1.5054     3.6502 H       
  52 H52            3.3497     0.6043     2.4935 H       
  53 H53            6.7812     2.0259     6.3440 H       
  54 H54            5.3491     2.7716     4.4880 H       
  55 H55            1.2266    -1.2225     2.8017 H       
  56 H56            5.4503    -1.8730     8.6610 H       
  57 H57            6.6771    -2.5942     7.5802 H       
  58 H58            0.2474    -6.0530     3.3856 H       
  59 H59            3.9115    -5.1325     6.1062 H       
  60 H60           -0.6878    -6.7466     1.6681 H       
  61 H61           -1.7771    -6.3528     3.0195 H       
  62 H62            3.1632     3.9226     1.1556 H       
  63 H63            2.4654     3.9655     3.5835 H       
  64 H64            3.8662     3.5196     4.5872 H       
  65 H65            4.0697     4.6492     3.2267 H       
  66 H66            3.6515     2.3499    -0.6945 H       
  67 H67            5.0930     2.6122     0.3163 H       
  68 H68            4.1480     1.1134     0.4856 H       
  69 H69           -3.6515    -6.0588     1.4230 H       
  70 H70           -2.5621    -6.4526     0.0715 H       
  71 H71           -2.1410    -8.6865     1.0620 H       
  72 H72           -3.2303    -8.2927     2.4135 H       
  73 H73           -3.4210   -10.4598     0.1070 H       
  74 H74           -4.4020   -10.3645     1.5901 H       
  75 H75           -5.6176   -11.5014    -0.2792 H       
  76 H76           -6.4378   -10.0127     0.2519 H       
  77 H77           -5.2282    -8.1391    -2.6415 H       
  78 H78           -6.2053    -8.0048    -1.1589 H       
  79 H79           -4.0071    -6.9548    -0.8055 H       
  80 H80           -3.1891    -8.4573    -1.2999 H       
@<TRIPOS>BOND
   1    1    2 1
   2    1    5 1
   3    1   43 1
   4    1   44 1
   5    2    3 1
   6    2   45 1
   7    2   46 1
   8    3   15 1
   9    3   47 1
  10    3   48 1
  11    4    5 am
  12    4   31 2
  13    4   32 1
  14    5   49 1
  15    6   32 1
  16    6   33 1
  17    6   10 1
  18    7    8 1
  19    7   19 1
  20    7   50 1
  21    8    9 ar
  22    8   11 ar
  23    9   10 1
  24    9   14 ar
  25   10   51 1
  26   10   52 1
  27   11   12 ar
  28   11   21 1
  29   12   13 ar
  30   12   23 1
  31   13   14 ar
  32   13   53 1
  33   14   54 1
  34   15   16 1
  35   16   17 ar
  36   16   24 ar
  37   17   18 ar
  38   17   55 1
  39   18   19 ar
  40   18   26 ar
  41   19   20 ar
  42   20   28 ar
  43   21   22 1
  44   22   23 1
  45   22   56 1
  46   22   57 1
  47   24   25 ar
  48   24   29 1
  49   25   26 ar
  50   25   58 1
  51   26   27 ar
  52   27   28 ar
  53   28   59 1
  54   29   30 1
  55   30   35 1
  56   30   60 1
  57   30   61 1
  58   32   34 1
  59   32   62 1
  60   33   63 1
  61   33   64 1
  62   33   65 1
  63   34   66 1
  64   34   67 1
  65   34   68 1
  66   35   36 1
  67   35   69 1
  68   35   70 1
  69   36   37 1
  70   36   71 1
  71   36   72 1
  72   37   38 1
  73   37   42 1
  74   38   39 1
  75   38   73 1
  76   38   74 1
  77   39   40 1
  78   39   75 1
  79   39   76 1
  80   40   41 1
  81   41   42 1
  82   41   77 1
  83   41   78 1
  84   42   79 1
  85   42   80 1

#	End of record

