#	Name: ASD02408113
#	Creating user name:	WinNT
#	Creation time:	15. 06. 2019 20:21

#	Modifying user name:	WinNT
#	Modification time:	15. 06. 2019 20:21

#	Program:	/corina/corina34_cracker 3.40 0067  02.08.2006

@<TRIPOS>MOLECULE
ASD02408113
  43   45    0    0    0
SMALL
NO_CHARGES


@<TRIPOS>ATOM
   1 C1             2.3189     5.9814    -4.1952 C.2     
   2 C2             1.1376     6.5975    -4.2596 C.2     
   3 C3             2.8583     5.3943    -2.9163 C.3     
   4 C4             2.4086     3.9613    -2.7925 C.2     
   5 N5             2.7864     3.2513    -1.7118 N.am    
   6 N6             1.6615     3.4509    -3.7334 N.2     
   7 C7             1.2321     2.1838    -3.6764 C.2     
   8 C8             1.5934     1.3846    -2.5791 C.2     
   9 C9             2.4014     1.9657    -1.5683 C.2     
  10 N10            0.4467     1.6713    -4.6796 N.pl3   
  11 C11           -0.6836     0.7860    -4.3672 C.3     
  12 O12            2.7440     1.3174    -0.5946 O.2     
  13 S13            0.8481     7.1473    -5.9050 S.3     
  14 C14            2.3933     6.4901    -6.4284 C.2     
  15 C15            3.0092     5.9169    -5.3933 C.2     
  16 C16           -1.9479     1.3505    -5.0227 C.3     
  17 C17           -1.6977     1.5459    -6.5198 C.3     
  18 C18           -0.5598     2.5491    -6.7218 C.3     
  19 C19            0.7169     2.0027    -6.0852 C.3     
  20 C20           -3.1073     0.3725    -4.8221 C.3     
  21 C21           -0.3323     2.7687    -8.2188 C.3     
  22 C22            1.1545     0.0250    -2.4812 C.1     
  23 N23            0.8063    -1.0535    -2.4034 N.1     
  24 H24            0.4621     6.7371    -3.4286 H       
  25 H25            3.9475     5.4335    -2.9295 H       
  26 H26            2.4844     5.9670    -2.0676 H       
  27 H27            3.3393     3.6671    -1.0319 H       
  28 H28           -0.4844    -0.2123    -4.7570 H       
  29 H29           -0.8223     0.7378    -3.2871 H       
  30 H30            2.7819     6.5389    -7.4349 H       
  31 H31            3.9769     5.4454    -5.4815 H       
  32 H32           -2.1968     2.3090    -4.5672 H       
  33 H33           -1.4246     0.5916    -6.9700 H       
  34 H34           -2.6037     1.9244    -6.9930 H       
  35 H35           -0.8218     3.4963    -6.2504 H       
  36 H36            1.5034     2.7553    -6.1398 H       
  37 H37            1.0322     1.1028    -6.6132 H       
  38 H38           -3.2832     0.2314    -3.7557 H       
  39 H39           -4.0066     0.7746    -5.2886 H       
  40 H40           -2.8580    -0.5852    -5.2790 H       
  41 H41           -1.2443     3.1580    -8.6716 H       
  42 H42            0.4782     3.4833    -8.3623 H       
  43 H43           -0.0690     1.8213    -8.6891 H       
@<TRIPOS>BOND
   1    1    2 2
   2    1    3 1
   3    1   15 1
   4    2   13 1
   5    2   24 1
   6    3    4 1
   7    3   25 1
   8    3   26 1
   9    4    5 1
  10    4    6 2
  11    5    9 am
  12    5   27 1
  13    6    7 1
  14    7    8 2
  15    7   10 1
  16    8    9 1
  17    8   22 1
  18    9   12 2
  19   10   11 1
  20   10   19 1
  21   11   16 1
  22   11   28 1
  23   11   29 1
  24   13   14 1
  25   14   15 2
  26   14   30 1
  27   15   31 1
  28   16   17 1
  29   16   20 1
  30   16   32 1
  31   17   18 1
  32   17   33 1
  33   17   34 1
  34   18   19 1
  35   18   21 1
  36   18   35 1
  37   19   36 1
  38   19   37 1
  39   20   38 1
  40   20   39 1
  41   20   40 1
  42   21   41 1
  43   21   42 1
  44   21   43 1
  45   22   23 3

#	End of record

