#	Name: ASD03331188
#	Creating user name:	WinNT
#	Creation time:	15. 06. 2019 20:38

#	Modifying user name:	WinNT
#	Modification time:	15. 06. 2019 20:38

#	Program:	/corina/corina34_cracker 3.40 0067  02.08.2006

@<TRIPOS>MOLECULE
ASD03331188
  57   60    0    0    0
SMALL
NO_CHARGES


@<TRIPOS>ATOM
   1 N1            -0.3056     1.6540     0.4181 N.am    
   2 C2            -0.2557     0.3554     1.1067 C.3     
   3 C3             0.3578    -0.6771     0.1549 C.3     
   4 N4             1.6525    -0.1816    -0.3311 N.3     
   5 C5             1.4915     1.0504    -1.1148 C.3     
   6 C6             0.9244     2.1536    -0.2150 C.3     
   7 C7            -1.4494     2.3648     0.3638 C.2     
   8 O8            -2.4804     1.8917     0.8014 O.2     
   9 N9            -1.4503     3.5999    -0.1756 N.am    
  10 C10           -2.6592     4.2775    -0.3702 C.ar    
  11 C11           -2.7094     5.6599    -0.2486 C.ar    
  12 C12           -3.9039     6.3258    -0.4418 C.ar    
  13 C13           -5.0491     5.6173    -0.7559 C.ar    
  14 C14           -5.0025     4.2407    -0.8777 C.ar    
  15 C15           -3.8099     3.5695    -0.6909 C.ar    
  16 C16            2.3523    -1.2127    -1.1091 C.3     
  17 C17            3.5481    -0.6011    -1.7925 C.ar    
  18 C18            4.7735    -0.5802    -1.1527 C.ar    
  19 C19            5.8728    -0.0197    -1.7771 C.ar    
  20 C20            5.7491     0.5207    -3.0420 C.ar    
  21 C21            4.5202     0.5011    -3.6865 C.ar    
  22 C22            3.4202    -0.0669    -3.0602 C.ar    
  23 C23            6.4003     0.5554    -6.1198 C.ar    
  24 C24            5.5218     1.4682    -5.5542 C.ar    
  25 O25            4.3957     1.0325    -4.9309 O.3     
  26 C26            7.5449     1.0009    -6.7525 C.ar    
  27 C27            7.8153     2.3549    -6.8219 C.ar    
  28 C28            6.9410     3.2669    -6.2593 C.ar    
  29 C29            5.7955     2.8268    -5.6256 C.ar    
  30 C30            7.2393     4.7421    -6.3364 C.3     
  31 F31            8.4447     4.9391    -7.0186 F       
  32 F32            6.2055     5.3918    -7.0192 F       
  33 F33            7.3447     5.2648    -5.0430 F       
  34 H34            0.3600     0.4392     2.0022 H       
  35 H35           -1.2648     0.0470     1.3803 H       
  36 H36            0.5042    -1.6183     0.6847 H       
  37 H37           -0.3117    -0.8354    -0.6905 H       
  38 H38            2.4601     1.3620    -1.5058 H       
  39 H39            0.8062     0.8680    -1.9425 H       
  40 H40            0.6956     3.0342    -0.8153 H       
  41 H41            1.6536     2.4103     0.5535 H       
  42 H42           -0.6131     4.0192    -0.4289 H       
  43 H43           -1.8153     6.2138    -0.0029 H       
  44 H44           -3.9436     7.4009    -0.3470 H       
  45 H45           -5.9821     6.1403    -0.9061 H       
  46 H46           -5.8986     3.6902    -1.1231 H       
  47 H47           -3.7732     2.4947    -0.7906 H       
  48 H48            2.6828    -2.0091    -0.4423 H       
  49 H49            1.6761    -1.6236    -1.8588 H       
  50 H50            4.8723    -1.0020    -0.1634 H       
  51 H51            6.8289    -0.0044    -1.2749 H       
  52 H52            6.6078     0.9586    -3.5291 H       
  53 H53            2.4627    -0.0835    -3.5596 H       
  54 H54            6.1919    -0.5027    -6.0616 H       
  55 H55            8.2291     0.2908    -7.1929 H       
  56 H56            8.7107     2.7011    -7.3166 H       
  57 H57            5.1132     3.5394    -5.1861 H       
@<TRIPOS>BOND
   1    1    2 1
   2    1    6 1
   3    1    7 am
   4    2    3 1
   5    2   34 1
   6    2   35 1
   7    3    4 1
   8    3   36 1
   9    3   37 1
  10    4    5 1
  11    4   16 1
  12    5    6 1
  13    5   38 1
  14    5   39 1
  15    6   40 1
  16    6   41 1
  17    7    8 2
  18    7    9 am
  19    9   10 1
  20    9   42 1
  21   10   11 ar
  22   10   15 ar
  23   11   12 ar
  24   11   43 1
  25   12   13 ar
  26   12   44 1
  27   13   14 ar
  28   13   45 1
  29   14   15 ar
  30   14   46 1
  31   15   47 1
  32   16   17 1
  33   16   48 1
  34   16   49 1
  35   17   18 ar
  36   17   22 ar
  37   18   19 ar
  38   18   50 1
  39   19   20 ar
  40   19   51 1
  41   20   21 ar
  42   20   52 1
  43   21   22 ar
  44   21   25 1
  45   22   53 1
  46   23   24 ar
  47   23   26 ar
  48   23   54 1
  49   24   25 1
  50   24   29 ar
  51   26   27 ar
  52   26   55 1
  53   27   28 ar
  54   27   56 1
  55   28   29 ar
  56   28   30 1
  57   29   57 1
  58   30   31 1
  59   30   32 1
  60   30   33 1

#	End of record

