#	Name: ASD01813940
#	Creating user name:	WinNT
#	Creation time:	15. 06. 2019 19:31

#	Modifying user name:	WinNT
#	Modification time:	15. 06. 2019 19:31

#	Program:	/corina/corina34_cracker 3.40 0067  02.08.2006

@<TRIPOS>MOLECULE
ASD01813940
  55   58    0    0    0
SMALL
NO_CHARGES


@<TRIPOS>ATOM
   1 C1             0.1211     1.4583     0.1181 C.2     
   2 C2             0.0980     0.0578     0.0733 C.2     
   3 C3             1.2744    -0.6327     0.0480 C.2     
   4 C4             2.4894     0.0723     0.0674 C.2     
   5 N5             2.4824     1.4400     0.1116 N.am    
   6 C6             1.3005     2.1194     0.1361 C.2     
   7 C7             3.6996    -0.6349     0.0416 C.2     
   8 C8             4.8855     0.0402     0.0604 C.2     
   9 C9             4.8745     1.4466     0.1054 C.2     
  10 C10            3.6411     2.1291     0.1308 C.2     
  11 O11            3.6222     3.3478     0.1694 O.2     
  12 C12            6.1333     2.1949     0.1269 C.2     
  13 O13            6.1160     3.5430     0.1699 O.3     
  14 O14            7.1945     1.6006     0.1059 O.2     
  15 C15            3.6910    -2.1411    -0.0065 C.3     
  16 N16            3.8053    -2.5872    -1.4015 N.3     
  17 C17            5.0524    -2.2439    -1.9375 C.3     
  18 C18            5.1277    -2.5192    -3.4528 C.3     
  19 N19            5.3487    -3.9328    -3.6604 N.3     
  20 C20            4.1056    -4.7081    -3.8744 C.3     
  21 C21            2.9730    -4.2746    -2.9302 C.3     
  22 C22            3.4684    -4.0218    -1.5285 C.3     
  23 C23            6.2590    -4.1502    -4.6973 C.ar    
  24 C24            7.4960    -3.5183    -4.6815 C.ar    
  25 C25            8.3938    -3.7359    -5.7080 C.ar    
  26 C26            8.0627    -4.5816    -6.7508 C.ar    
  27 C27            6.8321    -5.2122    -6.7696 C.ar    
  28 C28            5.9316    -5.0032    -5.7436 C.ar    
  29 N29            8.9738    -4.7992    -7.7885 N.4     
  30 O30            8.3930    -5.7248    -8.7613 O.3     
  31 O31            9.2769    -3.5278    -8.4459 O.3     
  32 H32           -0.8063     2.0116     0.1338 H       
  33 H33           -0.8436    -0.4708     0.0593 H       
  34 H34            1.2716    -1.7121     0.0138 H       
  35 H35            1.3064     3.1988     0.1709 H       
  36 H36            5.8213    -0.4986     0.0415 H       
  37 H37            6.9719     3.9929     0.1827 H       
  38 H38            4.5323    -2.5278     0.5687 H       
  39 H39            2.7588    -2.5129     0.4186 H       
  40 H40            5.2342    -1.1839    -1.7606 H       
  41 H41            5.8260    -2.8232    -1.4334 H       
  42 H42            4.1910    -2.2228    -3.9249 H       
  43 H43            5.9523    -1.9532    -3.8863 H       
  44 H44            3.7776    -4.5714    -4.9049 H       
  45 H45            4.3163    -5.7649    -3.7106 H       
  46 H46            2.5205    -3.3611    -3.3160 H       
  47 H47            2.2159    -5.0583    -2.9022 H       
  48 H48            4.3566    -4.6247    -1.3397 H       
  49 H49            2.6882    -4.2796    -0.8123 H       
  50 H50            7.7551    -2.8574    -3.8676 H       
  51 H51            9.3556    -3.2446    -5.6966 H       
  52 H52            6.5766    -5.8721    -7.5855 H       
  53 H53            4.9709    -5.4963    -5.7587 H       
  54 H54            9.8228    -5.1946    -7.4133 H       
  55 H55            8.9715    -5.9219    -9.5107 H       
@<TRIPOS>BOND
   1    1    2 1
   2    1    6 2
   3    1   32 1
   4    2    3 2
   5    2   33 1
   6    3    4 1
   7    3   34 1
   8    4    5 1
   9    4    7 2
  10    5    6 1
  11    5   10 am
  12    6   35 1
  13    7    8 1
  14    7   15 1
  15    8    9 2
  16    8   36 1
  17    9   10 1
  18    9   12 1
  19   10   11 2
  20   12   13 1
  21   12   14 2
  22   13   37 1
  23   15   16 1
  24   15   38 1
  25   15   39 1
  26   16   17 1
  27   16   22 1
  28   17   18 1
  29   17   40 1
  30   17   41 1
  31   18   19 1
  32   18   42 1
  33   18   43 1
  34   19   20 1
  35   19   23 1
  36   20   21 1
  37   20   44 1
  38   20   45 1
  39   21   22 1
  40   21   46 1
  41   21   47 1
  42   22   48 1
  43   22   49 1
  44   23   24 ar
  45   23   28 ar
  46   24   25 ar
  47   24   50 1
  48   25   26 ar
  49   25   51 1
  50   26   27 ar
  51   26   29 1
  52   27   28 ar
  53   27   52 1
  54   28   53 1
  55   29   30 1
  56   29   31 1
  57   29   54 1
  58   30   55 1

#	End of record

