#	Name: ASD01201020
#	Creating user name:	WinNT
#	Creation time:	15. 06. 2019 19:09

#	Modifying user name:	WinNT
#	Modification time:	15. 06. 2019 19:09

#	Program:	/corina/corina34_cracker 3.40 0067  02.08.2006

@<TRIPOS>MOLECULE
ASD01201020
  48   51    0    0    0
SMALL
NO_CHARGES


@<TRIPOS>ATOM
   1 C1            -0.0167     1.3792     0.0096 C.ar    
   2 C2             0.0021    -0.0041     0.0020 C.ar    
   3 C3             1.2087    -0.6842    -0.0132 C.ar    
   4 C4             2.3920     0.0166    -0.0208 C.ar    
   5 C5             2.3846     1.4137    -0.0132 C.ar    
   6 C6             1.1648     2.0919     0.0022 C.ar    
   7 C7             3.8409    -0.4021    -0.0369 C.3     
   8 N8             4.6266     0.8371    -0.0378 N.am    
   9 C9             3.7832     1.8837    -0.0241 C.2     
  10 O10            4.1240     3.0505    -0.0207 O.2     
  11 C11            6.0892     0.9201    -0.0514 C.3     
  12 S12            4.2232    -1.3815     1.4413 S.3     
  13 C13            3.6289    -3.0373     0.9988 C.3     
  14 C14            6.5770     0.9561    -1.4768 C.ar    
  15 C15            3.8791    -3.9837     2.1445 C.2     
  16 O16            4.4064    -3.5808     3.1597 O.2     
  17 N17            3.5169    -5.2777     2.0411 N.am    
  18 C18            3.7476    -6.1506     3.0979 C.2     
  19 C19            6.7327     2.1688    -2.1225 C.ar    
  20 C20            7.1798     2.2046    -3.4291 C.ar    
  21 C21            7.4727     1.0224    -4.0934 C.ar    
  22 C22            7.3156    -0.1931    -3.4433 C.ar    
  23 C23            6.8736    -0.2232    -2.1348 C.ar    
  24 N24            3.4393    -7.4097     3.1019 N.2     
  25 C25            3.7311    -8.0929     4.1928 C.2     
  26 C26            4.3138    -7.3771     5.1565 C.2     
  27 S27            4.4861    -5.7216     4.5790 S.3     
  28 O28            7.9122     1.0549    -5.3789 O.3     
  29 C29            8.1943    -0.2008    -6.0000 C.3     
  30 H30           -0.9607     1.9038     0.0169 H       
  31 H31           -0.9267    -0.5552     0.0083 H       
  32 H32            1.2202    -1.7641    -0.0188 H       
  33 H33            1.1457     3.1718     0.0078 H       
  34 H34            4.0535    -0.9810    -0.9357 H       
  35 H35            6.4065     1.8264     0.4643 H       
  36 H36            6.5072     0.0493     0.4538 H       
  37 H37            2.5601    -2.9956     0.7887 H       
  38 H38            4.1596    -3.3894     0.1142 H       
  39 H39            3.0951    -5.5999     1.2292 H       
  40 H40            6.5042     3.0888    -1.6050 H       
  41 H41            7.3009     3.1520    -3.9331 H       
  42 H42            7.5430    -1.1148    -3.9582 H       
  43 H43            6.7512    -1.1691    -1.6282 H       
  44 H44            3.5158    -9.1461     4.2970 H       
  45 H45            4.6288    -7.7487     6.1204 H       
  46 H46            8.9718    -0.7178    -5.4376 H       
  47 H47            7.2906    -0.8100    -6.0148 H       
  48 H48            8.5357    -0.0324    -7.0214 H       
@<TRIPOS>BOND
   1    1    2 ar
   2    1    6 ar
   3    1   30 1
   4    2    3 ar
   5    2   31 1
   6    3    4 ar
   7    3   32 1
   8    4    5 ar
   9    4    7 1
  10    5    6 ar
  11    5    9 1
  12    6   33 1
  13    7    8 1
  14    7   12 1
  15    7   34 1
  16    8    9 am
  17    8   11 1
  18    9   10 2
  19   11   14 1
  20   11   35 1
  21   11   36 1
  22   12   13 1
  23   13   15 1
  24   13   37 1
  25   13   38 1
  26   14   19 ar
  27   14   23 ar
  28   15   16 2
  29   15   17 am
  30   17   18 1
  31   17   39 1
  32   18   24 2
  33   18   27 1
  34   19   20 ar
  35   19   40 1
  36   20   21 ar
  37   20   41 1
  38   21   22 ar
  39   21   28 1
  40   22   23 ar
  41   22   42 1
  42   23   43 1
  43   24   25 1
  44   25   26 2
  45   25   44 1
  46   26   27 1
  47   26   45 1
  48   28   29 1
  49   29   46 1
  50   29   47 1
  51   29   48 1

#	End of record

