#	Name: ASD01813413
#	Creating user name:	WinNT
#	Creation time:	15. 06. 2019 19:30

#	Modifying user name:	WinNT
#	Modification time:	15. 06. 2019 19:30

#	Program:	/corina/corina34_cracker 3.40 0067  02.08.2006

@<TRIPOS>MOLECULE
ASD01813413
  55   58    0    0    0
SMALL
NO_CHARGES


@<TRIPOS>ATOM
   1 C1           -10.8114   -10.5874    -5.2118 C.3     
   2 C2           -10.4899    -9.2100    -4.6919 C.2     
   3 N3            -9.5137    -8.9341    -3.8982 N.2     
   4 C4            -9.3699    -7.6678    -3.5349 C.2     
   5 C5           -10.2901    -6.8360    -4.0635 C.2     
   6 S6           -11.3653    -7.7938    -5.0785 S.3     
   7 C7            -8.2918    -7.2063    -2.6263 C.ar    
   8 C8            -8.1995    -5.8601    -2.2778 C.ar    
   9 C9            -7.1948    -5.4364    -1.4318 C.ar    
  10 C10           -6.2805    -6.3451    -0.9300 C.ar    
  11 C11           -5.1860    -5.8764    -0.0062 C.3     
  12 C12           -5.6078    -6.0951     1.4240 C.ar    
  13 C13           -5.2297    -7.2400     2.1073 C.ar    
  14 C14           -5.6390    -7.4057     3.4285 C.ar    
  15 N15           -6.3805    -6.4813     4.0261 N.ar    
  16 C16           -6.7532    -5.3857     3.4012 C.ar    
  17 C17           -6.3779    -5.1528     2.0879 C.ar    
  18 C18           -6.8074    -3.8901     1.3863 C.3     
  19 C19           -5.2436    -8.6244     4.1727 C.2     
  20 O20           -4.5652    -9.4742     3.6304 O.2     
  21 N21           -5.6365    -8.7904     5.4512 N.am    
  22 C22           -5.2456    -9.9954     6.1871 C.3     
  23 H23           -5.2242   -10.8470     5.5071 H       
  24 C24           -3.8562    -9.7936     6.7995 C.3     
  25 C25           -3.4898   -11.0257     7.6310 C.3     
  26 O26           -4.4832   -11.2324     8.6372 O.3     
  27 C27           -5.7942   -11.4735     8.1220 C.3     
  28 C28           -6.2544   -10.2607     7.3088 C.3     
  29 H29           -6.3131    -9.3883     7.9597 H       
  30 O30           -7.5400   -10.5230     6.7427 O.3     
  31 C31           -6.3674    -7.6825    -1.2725 C.ar    
  32 C32           -7.3711    -8.1183    -2.1135 C.ar    
  33 H33          -11.6818   -10.5349    -5.8658 H       
  34 H34           -9.9590   -10.9725    -5.7716 H       
  35 H35          -11.0257   -11.2511    -4.3742 H       
  36 H36          -10.3541    -5.7707    -3.8973 H       
  37 H37           -8.9125    -5.1497    -2.6693 H       
  38 H38           -7.1220    -4.3934    -1.1613 H       
  39 H39           -4.2750    -6.4405    -0.2066 H       
  40 H40           -5.0001    -4.8153    -0.1720 H       
  41 H41           -4.6266    -7.9933     1.6222 H       
  42 H42           -7.3569    -4.6558     3.9200 H       
  43 H43           -7.7163    -4.0825     0.8161 H       
  44 H44           -6.9996    -3.1116     2.1246 H       
  45 H45           -6.0170    -3.5630     0.7107 H       
  46 H46           -6.1781    -8.1121     5.8842 H       
  47 H47           -3.1233    -9.6600     6.0039 H       
  48 H48           -3.8650    -8.9115     7.4398 H       
  49 H49           -3.4416   -11.9006     6.9827 H       
  50 H50           -2.5202   -10.8698     8.1041 H       
  51 H51           -5.7761   -12.3542     7.4801 H       
  52 H52           -6.4847   -11.6401     8.9487 H       
  53 H53           -8.2293   -10.7000     7.3974 H       
  54 H54           -5.6509    -8.3876    -0.8778 H       
  55 H55           -7.4405    -9.1633    -2.3771 H       
@<TRIPOS>BOND
   1    1    2 1
   2    1   33 1
   3    1   34 1
   4    1   35 1
   5    2    6 1
   6    2    3 2
   7    3    4 1
   8    4    5 2
   9    4    7 1
  10    5    6 1
  11    5   36 1
  12    7   32 ar
  13    7    8 ar
  14    8    9 ar
  15    8   37 1
  16    9   10 ar
  17    9   38 1
  18   10   11 1
  19   10   31 ar
  20   11   12 1
  21   11   39 1
  22   11   40 1
  23   12   17 ar
  24   12   13 ar
  25   13   14 ar
  26   13   41 1
  27   14   15 ar
  28   14   19 1
  29   15   16 ar
  30   16   17 ar
  31   16   42 1
  32   17   18 1
  33   18   43 1
  34   18   44 1
  35   18   45 1
  36   19   20 2
  37   19   21 am
  38   21   22 1
  39   21   46 1
  40   22   23 1
  41   22   28 1
  42   22   24 1
  43   24   25 1
  44   24   47 1
  45   24   48 1
  46   25   26 1
  47   25   49 1
  48   25   50 1
  49   26   27 1
  50   27   28 1
  51   27   51 1
  52   27   52 1
  53   28   29 1
  54   28   30 1
  55   30   53 1
  56   31   32 ar
  57   31   54 1
  58   32   55 1

#	End of record

