#	Name: ASD00671001
#	Creating user name:	WinNT
#	Creation time:	15. 06. 2019 18:37

#	Modifying user name:	WinNT
#	Modification time:	15. 06. 2019 18:37

#	Program:	/corina/corina34_cracker 3.40 0067  02.08.2006

@<TRIPOS>MOLECULE
ASD00671001
  49   52    0    0    0
SMALL
NO_CHARGES


@<TRIPOS>ATOM
   1 C1             0.0535     1.4183     0.0123 C.ar    
   2 C2             0.1148     0.0264    -0.0004 C.ar    
   3 C3            -1.0813    -0.8300     0.0278 C.2     
   4 N4            -2.1672    -0.5987    -0.6210 N.2     
   5 C5            -2.3223     0.5812    -1.4710 C.3     
   6 C6            -2.2418     1.8139    -0.6125 C.2     
   7 N7            -1.1364     2.1276     0.0613 N.am    
   8 C8             1.2390     2.1558    -0.0198 C.ar    
   9 C9             2.4604     1.5207    -0.0617 C.ar    
  10 C10            2.5242     0.1370    -0.0733 C.ar    
  11 C11            1.3670    -0.6059    -0.0428 C.ar    
  12 C12           -1.0306    -2.0504     0.8661 C.ar    
  13 C13           -0.1640    -2.1151     1.9569 C.ar    
  14 C14           -0.1217    -3.2544     2.7342 C.ar    
  15 C15           -0.9363    -4.3313     2.4331 C.ar    
  16 C16           -1.7977    -4.2733     1.3520 C.ar    
  17 C17           -1.8535    -3.1371     0.5710 C.ar    
  18 C18           -1.1817     3.3158     0.9171 C.3     
  19 O19           -3.2091     2.5410    -0.5308 O.2     
  20 N20           -1.2524     0.6093    -2.4713 N.am    
  21 C21           -1.5185     0.2843    -3.7520 C.2     
  22 N22           -0.5343     0.3102    -4.6723 N.am    
  23 O23           -2.6466    -0.0322    -4.0770 O.2     
  24 C24           -0.7831    -0.1349    -5.9756 C.ar    
  25 C25           -0.1584     0.4805    -7.0519 C.ar    
  26 C26           -0.4058     0.0384    -8.3376 C.ar    
  27 C27           -1.2748    -1.0162    -8.5523 C.ar    
  28 C28           -1.8983    -1.6309    -7.4819 C.ar    
  29 C29           -1.6510    -1.1969    -6.1944 C.ar    
  30 I30            0.5355     0.9664    -9.9629 I       
  31 H31           -3.2905     0.5466    -1.9703 H       
  32 H32            1.1976     3.2350    -0.0120 H       
  33 H33            3.3700     2.1025    -0.0860 H       
  34 H34            3.4831    -0.3588    -0.1064 H       
  35 H35            1.4225    -1.6844    -0.0518 H       
  36 H36            0.4729    -1.2753     2.1925 H       
  37 H37            0.5490    -3.3057     3.5792 H       
  38 H38           -0.8994    -5.2210     3.0442 H       
  39 H39           -2.4309    -5.1173     1.1217 H       
  40 H40           -2.5266    -3.0929    -0.2725 H       
  41 H41           -2.1703     3.7706     0.8554 H       
  42 H42           -0.9776     3.0286     1.9486 H       
  43 H43           -0.4307     4.0322     0.5841 H       
  44 H44           -0.3524     0.8618    -2.2120 H       
  45 H45            0.3465     0.6373    -4.4314 H       
  46 H46            0.5199     1.3042    -6.8846 H       
  47 H47           -1.4670    -1.3599    -9.5579 H       
  48 H48           -2.5763    -2.4540    -7.6528 H       
  49 H49           -2.1384    -1.6776    -5.3591 H       
@<TRIPOS>BOND
   1    1    2 ar
   2    1    8 ar
   3    1    7 1
   4    2    3 1
   5    2   11 ar
   6    3    4 2
   7    3   12 1
   8    4    5 1
   9    5    6 1
  10    5   20 1
  11    5   31 1
  12    6    7 am
  13    6   19 2
  14    7   18 1
  15    8    9 ar
  16    8   32 1
  17    9   10 ar
  18    9   33 1
  19   10   11 ar
  20   10   34 1
  21   11   35 1
  22   12   13 ar
  23   12   17 ar
  24   13   14 ar
  25   13   36 1
  26   14   15 ar
  27   14   37 1
  28   15   16 ar
  29   15   38 1
  30   16   17 ar
  31   16   39 1
  32   17   40 1
  33   18   41 1
  34   18   42 1
  35   18   43 1
  36   20   21 am
  37   20   44 1
  38   21   22 am
  39   21   23 2
  40   22   24 1
  41   22   45 1
  42   24   25 ar
  43   24   29 ar
  44   25   26 ar
  45   25   46 1
  46   26   27 ar
  47   26   30 1
  48   27   28 ar
  49   27   47 1
  50   28   29 ar
  51   28   48 1
  52   29   49 1

#	End of record

