#	Name: ASD01916228
#	Creating user name:	WinNT
#	Creation time:	15. 06. 2019 20:06

#	Modifying user name:	WinNT
#	Modification time:	15. 06. 2019 20:06

#	Program:	/corina/corina34_cracker 3.40 0067  02.08.2006

@<TRIPOS>MOLECULE
ASD01916228
  23   24    0    0    0
SMALL
NO_CHARGES


@<TRIPOS>ATOM
   1 C1            -0.0142     1.3271     0.0629 C.2     
   2 N2             0.0039    -0.0043     0.0569 N.2     
   3 C3             1.1515    -0.6665    -0.0093 C.2     
   4 C4             2.3660     0.0477    -0.0740 C.2     
   5 C5             2.3319     1.4017    -0.0671 C.2     
   6 N6             1.1268     2.0379     0.0022 N.am    
   7 O7            -1.0832     1.9122     0.1192 O.2     
   8 I8             4.1943    -0.9700    -0.1787 I       
   9 C9             1.0771     3.4382     0.0103 C.ar    
  10 C10            1.5705     4.1451     1.0988 C.ar    
  11 C11            1.5205     5.5252     1.1049 C.ar    
  12 C12            0.9784     6.2041     0.0264 C.ar    
  13 C13            0.4858     5.5009    -1.0602 C.ar    
  14 C14            0.5395     4.1210    -1.0727 C.ar    
  15 F15            0.9296     7.5542     0.0346 F       
  16 N16            1.1570    -2.0425    -0.0143 N.pl3   
  17 H17            3.2482     1.9714    -0.1158 H       
  18 H18            1.9927     3.6160     1.9404 H       
  19 H19            1.9042     6.0753     1.9513 H       
  20 H20            0.0634     6.0321    -1.9003 H       
  21 H21            0.1596     3.5731    -1.9224 H       
  22 H22            0.3202    -2.5310     0.0307 H       
  23 H23            1.9977    -2.5240    -0.0628 H       
@<TRIPOS>BOND
   1    1    2 1
   2    1    6 am
   3    1    7 2
   4    2    3 2
   5    3    4 1
   6    3   16 1
   7    4    5 2
   8    4    8 1
   9    5    6 1
  10    5   17 1
  11    6    9 1
  12    9   10 ar
  13    9   14 ar
  14   10   11 ar
  15   10   18 1
  16   11   12 ar
  17   11   19 1
  18   12   13 ar
  19   12   15 1
  20   13   14 ar
  21   13   20 1
  22   14   21 1
  23   16   22 1
  24   16   23 1

#	End of record

