#	Name: ASD01916912
#	Creating user name:	WinNT
#	Creation time:	15. 06. 2019 20:08

#	Modifying user name:	WinNT
#	Modification time:	15. 06. 2019 20:08

#	Program:	/corina/corina34_cracker 3.40 0067  02.08.2006

@<TRIPOS>MOLECULE
ASD01916912
  59   63    0    0    0
SMALL
NO_CHARGES


@<TRIPOS>ATOM
   1 C1            -0.0013     1.3427     0.1667 C.ar    
   2 C2             0.0325    -0.0168     0.4321 C.ar    
   3 C3             1.2466    -0.6680     0.5785 C.ar    
   4 C4             2.4277     0.0354     0.4606 C.ar    
   5 C5             2.3983     1.4027     0.1939 C.ar    
   6 C6             1.1751     2.0537     0.0473 C.ar    
   7 C7             3.6661     2.1635     0.0667 C.2     
   8 N8             4.8955     1.6507     0.1864 N.2     
   9 N9             3.7630     3.4508    -0.1878 N.2     
  10 N10            5.1327     3.7582    -0.2227 N.pl3   
  11 C11            5.7909     2.6002     0.0165 C.2     
  12 C12            7.2600     2.4314     0.0773 C.ar    
  13 C13            5.7310     5.0718    -0.4734 C.3     
  14 C14            5.8602     5.8215     0.8274 C.2     
  15 O15            5.4892     5.3090     1.8621 O.2     
  16 N16            6.3882     7.0615     0.8410 N.am    
  17 C17            6.5234     7.8106     2.0995 C.3     
  18 C18            7.9655     8.3166     2.2122 C.3     
  19 N19            8.3127     9.0705     1.0002 N.3     
  20 C20            8.2737     8.2117    -0.1910 C.3     
  21 C21            6.8499     7.6990    -0.4014 C.3     
  22 C22            9.5483     9.6799     1.1321 C.ar    
  23 N23           10.0221    10.4049     0.1294 N.ar    
  24 N24           10.2268     9.5290     2.2600 N.ar    
  25 C25           11.1993    11.0009     0.2232 C.ar    
  26 C26           11.9379    10.8595     1.3875 C.ar    
  27 C27           11.4101    10.0984     2.4186 C.ar    
  28 C28            8.0823     3.5352     0.2973 C.ar    
  29 C29            9.4564     3.3699     0.3530 C.ar    
  30 C30           10.0113     2.1082     0.1894 C.ar    
  31 C31            9.1966     1.0125    -0.0290 C.ar    
  32 C32            7.8262     1.1658    -0.0799 C.ar    
  33 O33           10.2616     4.4436     0.5673 O.3     
  34 C34           11.6690     4.2002     0.6128 C.3     
  35 F35           -1.1216    -0.7092     0.5487 F       
  36 H36           -0.9498     1.8456     0.0488 H       
  37 H37            1.2685    -1.7278     0.7856 H       
  38 H38            3.3737    -0.4729     0.5753 H       
  39 H39            1.1478     3.1133    -0.1598 H       
  40 H40            6.7178     4.9427    -0.9180 H       
  41 H41            5.0958     5.6359    -1.1564 H       
  42 H42            5.8373     8.6576     2.0970 H       
  43 H43            6.2982     7.1559     2.9414 H       
  44 H44            8.0560     8.9660     3.0829 H       
  45 H45            8.6413     7.4681     2.3189 H       
  46 H46            8.5879     8.7850    -1.0632 H       
  47 H47            8.9453     7.3647    -0.0508 H       
  48 H48            6.8387     6.9723    -1.2138 H       
  49 H49            6.1923     8.5337    -0.6439 H       
  50 H50           11.5804    11.5903    -0.5976 H       
  51 H51           12.9019    11.3354     1.4906 H       
  52 H52           11.9601     9.9687     3.3390 H       
  53 H53            7.6493     4.5165     0.4238 H       
  54 H54           11.0830     1.9819     0.2324 H       
  55 H55            9.6339     0.0331    -0.1556 H       
  56 H56            7.1926     0.3079    -0.2506 H       
  57 H57           11.8911     3.5018     1.4197 H       
  58 H58           11.9950     3.7745    -0.3362 H       
  59 H59           12.1945     5.1386     0.7896 H       
@<TRIPOS>BOND
   1    1    2 ar
   2    1    6 ar
   3    1   36 1
   4    2    3 ar
   5    2   35 1
   6    3    4 ar
   7    3   37 1
   8    4    5 ar
   9    4   38 1
  10    5    6 ar
  11    5    7 1
  12    6   39 1
  13    7    8 1
  14    7    9 2
  15    8   11 2
  16    9   10 1
  17   10   11 1
  18   10   13 1
  19   11   12 1
  20   12   28 ar
  21   12   32 ar
  22   13   14 1
  23   13   40 1
  24   13   41 1
  25   14   15 2
  26   14   16 am
  27   16   17 1
  28   16   21 1
  29   17   18 1
  30   17   42 1
  31   17   43 1
  32   18   19 1
  33   18   44 1
  34   18   45 1
  35   19   20 1
  36   19   22 1
  37   20   21 1
  38   20   46 1
  39   20   47 1
  40   21   48 1
  41   21   49 1
  42   22   23 ar
  43   22   24 ar
  44   23   25 ar
  45   24   27 ar
  46   25   26 ar
  47   25   50 1
  48   26   27 ar
  49   26   51 1
  50   27   52 1
  51   28   29 ar
  52   28   53 1
  53   29   30 ar
  54   29   33 1
  55   30   31 ar
  56   30   54 1
  57   31   32 ar
  58   31   55 1
  59   32   56 1
  60   33   34 1
  61   34   57 1
  62   34   58 1
  63   34   59 1

#	End of record

