#	Name: ASD00960150
#	Creating user name:	WinNT
#	Creation time:	15. 06. 2019 18:53

#	Modifying user name:	WinNT
#	Modification time:	15. 06. 2019 18:53

#	Program:	/corina/corina34_cracker 3.40 0067  02.08.2006

@<TRIPOS>MOLECULE
ASD00960150
  39   41    0    0    0
SMALL
NO_CHARGES


@<TRIPOS>ATOM
   1 C1            -0.1103     1.2288     0.0492 C.3     
   2 C2            -0.7256     2.1012     1.1657 C.3     
   3 O3            -2.0481     2.4322     0.6888 O.3     
   4 C4            -1.8868     2.7074    -0.7198 C.3     
   5 C5            -3.2264     2.5701    -1.4461 C.3     
   6 C6            -0.8118     1.3222     2.4528 C.2     
   7 C7             0.1862     1.1939     3.3541 C.2     
   8 N8            -1.9059     0.6465     2.8872 N.pl3   
   9 C9            -1.6167     0.0607     4.0919 C.2     
  10 C10           -0.2936     0.3908     4.4148 C.2     
  11 N11           -3.1881     0.4620     2.3489 N.2     
  12 C12           -4.0717    -0.2533     2.9932 C.2     
  13 N13           -3.8021    -0.8259     4.1620 N.2     
  14 C14           -2.6167    -0.6996     4.7353 C.2     
  15 N15           -2.3605    -1.3048     5.9505 N.pl3   
  16 C16           -0.8888     1.6359    -1.2218 C.3     
  17 O17           -0.0056     2.1924    -2.1977 O.3     
  18 C18           -0.3188    -0.2562     0.3529 C.3     
  19 O19           -4.1171     3.5949    -1.0005 O.3     
  20 O20            1.2811     1.5171    -0.1021 O.3     
  21 C21            0.4456    -0.0153     5.6128 C.2     
  22 O22           -0.1241    -0.0823     6.6854 O.2     
  23 O23            1.7579    -0.3150     5.5263 O.3     
  24 H24           -0.1359     3.0068     1.3080 H       
  25 H25           -1.4752     3.7059    -0.8666 H       
  26 H26           -3.0689     2.6673    -2.5203 H       
  27 H27           -3.6588     1.5933    -1.2292 H       
  28 H28            1.1728     1.6265     3.2783 H       
  29 H29           -5.0534    -0.3831     2.5621 H       
  30 H30           -3.0959    -1.5727     6.5234 H       
  31 H31           -1.4452    -1.4617     6.2307 H       
  32 H32           -1.4229     0.7793    -1.6331 H       
  33 H33           -0.4518     2.5203    -2.9904 H       
  34 H34            0.1888    -0.5115     1.2832 H       
  35 H35           -1.3848    -0.4605     0.4527 H       
  36 H36            0.0912    -0.8546    -0.4607 H       
  37 H37           -4.9879     3.5688    -1.4201 H       
  38 H38            1.7115     1.0181    -0.8098 H       
  39 H39            2.2031    -0.5778     6.3435 H       
@<TRIPOS>BOND
   1    1   18 1
   2    1   20 1
   3    1    2 1
   4    1   16 1
   5    2    3 1
   6    2    6 1
   7    2   24 1
   8    3    4 1
   9    4   16 1
  10    4    5 1
  11    4   25 1
  12    5   19 1
  13    5   26 1
  14    5   27 1
  15    6    7 2
  16    6    8 1
  17    7   10 1
  18    7   28 1
  19    8    9 1
  20    8   11 1
  21    9   10 2
  22    9   14 1
  23   10   21 1
  24   11   12 2
  25   12   13 1
  26   12   29 1
  27   13   14 2
  28   14   15 1
  29   15   30 1
  30   15   31 1
  31   16   17 1
  32   16   32 1
  33   17   33 1
  34   18   34 1
  35   18   35 1
  36   18   36 1
  37   19   37 1
  38   20   38 1
  39   21   22 2
  40   21   23 1
  41   23   39 1

#	End of record

