#	Name: ASD01120007
#	Creating user name:	WinNT
#	Creation time:	15. 06. 2019 18:58

#	Modifying user name:	WinNT
#	Modification time:	15. 06. 2019 18:58

#	Program:	/corina/corina34_cracker 3.40 0067  02.08.2006

@<TRIPOS>MOLECULE
ASD01120007
  82   87    0    0    0
SMALL
NO_CHARGES


@<TRIPOS>ATOM
   1 C1             0.0384     1.0139     1.3388 C.ar    
   2 C2            -0.1051    -0.2107     0.6836 C.ar    
   3 C3             0.9520    -0.7176    -0.0749 C.ar    
   4 C4             2.1299    -0.0063    -0.1722 C.ar    
   5 C5             2.2655     1.2064     0.4800 C.ar    
   6 C6             1.2219     1.7147     1.2329 C.ar    
   7 C7             3.5556     1.9774     0.3693 C.3     
   8 C8             3.8443     2.2681    -1.0809 C.2     
   9 N9             3.9957     1.2530    -1.9545 N.am    
  10 C10            4.2764     1.5355    -3.3643 C.3     
  11 C11            4.4017     0.2187    -4.1332 C.3     
  12 C12            4.6904     0.5094    -5.5834 C.ar    
  13 C13            5.9979     0.6204    -6.0186 C.ar    
  14 C14            6.2662     0.8875    -7.3486 C.ar    
  15 C15            5.2278     1.0441    -8.2458 C.ar    
  16 C16            3.9146     0.9326    -7.8117 C.ar    
  17 C17            3.6483     0.6591    -6.4782 C.ar    
  18 N18            3.4356     3.2383     1.1056 N.am    
  19 O19            2.8912     1.0867    -8.6925 O.3     
  20 O20            3.9404     3.4155    -1.4620 O.2     
  21 C21            4.3718     3.4899     2.1884 C.3     
  22 C22            4.0907     4.7821     2.8845 C.2     
  23 N23            3.1132     5.6233     2.5446 N.am    
  24 C24            2.2340     5.4102     1.3945 C.3     
  25 C25            2.4787     4.0888     0.7400 C.2     
  26 C26            2.8778     6.8323     3.3503 C.3     
  27 C27            2.6793     8.0157     2.4374 C.ar    
  28 O28            4.7984     5.0858     3.8213 O.2     
  29 O29            1.7539     3.7672    -0.1777 O.2     
  30 C30            2.6984     9.2821     3.0055 C.ar    
  31 C31            2.5126    10.4034     2.2230 C.ar    
  32 C32            2.3046    10.2644     0.8637 C.ar    
  33 C33            2.2897     9.0065     0.2975 C.ar    
  34 C34            2.4822     7.8761     1.0817 C.ar    
  35 C35            2.4801     6.5380     0.3907 C.3     
  36 C36            5.7913     3.5305     1.6190 C.3     
  37 C37            6.1905     2.1319     1.1441 C.3     
  38 C38            7.6743     2.1242     0.7710 C.3     
  39 C39            8.0734     0.7256     0.2961 C.3     
  40 C40            7.8244    -0.2844     1.4180 C.3     
  41 C41            6.3406    -0.2766     1.7912 C.3     
  42 C42            5.9415     1.1219     2.2661 C.3     
  43 C43           -1.3307    -0.9439     0.7895 C.1     
  44 N44           -2.3029    -1.5254     0.8735 N.1     
  45 H45           -0.7769     1.4138     1.9235 H       
  46 H46            0.8477    -1.6644    -0.5839 H       
  47 H47            2.9484    -0.3971    -0.7586 H       
  48 H48            1.3345     2.6617     1.7397 H       
  49 H49            4.3691     1.3868     0.7905 H       
  50 H50            3.9189     0.3353    -1.6497 H       
  51 H51            3.4629     2.1262    -3.7854 H       
  52 H52            5.2095     2.0932    -3.4443 H       
  53 H53            5.2153    -0.3719    -3.7121 H       
  54 H54            3.4686    -0.3390    -4.0532 H       
  55 H55            6.8112     0.4987    -5.3185 H       
  56 H56            7.2884     0.9741    -7.6860 H       
  57 H57            5.4378     1.2533    -9.2843 H       
  58 H58            2.6271     0.5719    -6.1378 H       
  59 H59            2.6119     0.2648    -9.1186 H       
  60 H60            4.3048     2.6765     2.9109 H       
  61 H61            1.1959     5.4642     1.7223 H       
  62 H62            1.9870     6.6928     3.9628 H       
  63 H63            3.7376     7.0117     3.9958 H       
  64 H64            2.8594     9.3905     4.0679 H       
  65 H65            2.5294    11.3859     2.6712 H       
  66 H66            2.1544    11.1380     0.2466 H       
  67 H67            2.1262     8.8996    -0.7647 H       
  68 H68            3.4439     6.3829    -0.0941 H       
  69 H69            1.6934     6.5249    -0.3636 H       
  70 H70            5.8259     4.2233     0.7783 H       
  71 H71            6.4837     3.8629     2.3925 H       
  72 H72            5.5952     1.8606     0.2723 H       
  73 H73            7.8517     2.8437    -0.0283 H       
  74 H74            8.2696     2.3955     1.6428 H       
  75 H75            7.4781     0.4543    -0.5758 H       
  76 H76            9.1305     0.7201     0.0303 H       
  77 H77            8.1088    -1.2808     1.0797 H       
  78 H78            8.4197    -0.0131     2.2899 H       
  79 H79            5.7453    -0.5480     0.9193 H       
  80 H80            6.1632    -0.9962     2.5905 H       
  81 H81            6.5368     1.3933     3.1379 H       
  82 H82            4.8844     1.1275     2.5319 H       
@<TRIPOS>BOND
   1    1    2 ar
   2    1    6 ar
   3    1   45 1
   4    2    3 ar
   5    2   43 1
   6    3    4 ar
   7    3   46 1
   8    4    5 ar
   9    4   47 1
  10    5    6 ar
  11    5    7 1
  12    6   48 1
  13    7    8 1
  14    7   18 1
  15    7   49 1
  16    8    9 am
  17    8   20 2
  18    9   10 1
  19    9   50 1
  20   10   11 1
  21   10   51 1
  22   10   52 1
  23   11   12 1
  24   11   53 1
  25   11   54 1
  26   12   13 ar
  27   12   17 ar
  28   13   14 ar
  29   13   55 1
  30   14   15 ar
  31   14   56 1
  32   15   16 ar
  33   15   57 1
  34   16   17 ar
  35   16   19 1
  36   17   58 1
  37   18   21 1
  38   18   25 am
  39   19   59 1
  40   21   22 1
  41   21   36 1
  42   21   60 1
  43   22   23 am
  44   22   28 2
  45   23   24 1
  46   23   26 1
  47   24   25 1
  48   24   35 1
  49   24   61 1
  50   25   29 2
  51   26   27 1
  52   26   62 1
  53   26   63 1
  54   27   30 ar
  55   27   34 ar
  56   30   31 ar
  57   30   64 1
  58   31   32 ar
  59   31   65 1
  60   32   33 ar
  61   32   66 1
  62   33   34 ar
  63   33   67 1
  64   34   35 1
  65   35   68 1
  66   35   69 1
  67   36   37 1
  68   36   70 1
  69   36   71 1
  70   37   38 1
  71   37   42 1
  72   37   72 1
  73   38   39 1
  74   38   73 1
  75   38   74 1
  76   39   40 1
  77   39   75 1
  78   39   76 1
  79   40   41 1
  80   40   77 1
  81   40   78 1
  82   41   42 1
  83   41   79 1
  84   41   80 1
  85   42   81 1
  86   42   82 1
  87   43   44 3

#	End of record

