#	Name: ASD08178075
#	Creating user name:	WinNT
#	Creation time:	15. 06. 2019 21:18

#	Modifying user name:	WinNT
#	Modification time:	15. 06. 2019 21:18

#	Program:	/corina/corina34_cracker 3.40 0067  02.08.2006

@<TRIPOS>MOLECULE
ASD08178075
  55   58    0    0    0
SMALL
NO_CHARGES


@<TRIPOS>ATOM
   1 N1            -0.0150     1.2583     0.0090 N.2     
   2 N2             0.0021    -0.0041     0.0020 N.2     
   3 C3             1.1271     1.8769     0.0014 C.2     
   4 S4             2.3826     0.7116    -0.0169 S.3     
   5 C5             1.1681    -0.5677    -0.0121 C.2     
   6 N6             1.3017     3.2566     0.0067 N.am    
   7 C7             0.2284     4.0717     0.0214 C.2     
   8 O8            -0.8897     3.6019     0.0299 O.2     
   9 C9             1.4387    -2.0502    -0.0227 C.3     
  10 C10            1.7912    -4.0493    -1.4794 C.3     
  11 C11            1.8678    -4.5358    -2.9036 C.2     
  12 N12            2.9356    -4.5950    -3.6343 N.2     
  13 S13            0.5207    -5.1341    -3.8726 S.3     
  14 C14            1.5988    -5.3880    -5.1795 C.2     
  15 N15            2.7925    -5.0345    -4.8091 N.2     
  16 N16            1.2539    -5.8934    -6.4284 N.am    
  17 C17            2.1984    -6.0469    -7.3775 C.2     
  18 O18            3.3491    -5.7444    -7.1425 O.2     
  19 C19            1.8246    -6.5945    -8.7308 C.3     
  20 C20            0.4176     5.5667     0.0272 C.3     
  21 C21           -0.9288     6.2434     0.0438 C.ar    
  22 C22            3.0532    -6.6659    -9.6006 C.ar    
  23 C23            3.4075    -5.5851   -10.3864 C.ar    
  24 C24           -1.5346     6.5477     1.2485 C.ar    
  25 C25           -2.7697     7.1684     1.2638 C.ar    
  26 C26           -3.3988     7.4852     0.0743 C.ar    
  27 C27           -2.7926     7.1818    -1.1304 C.ar    
  28 C28           -1.5555     6.5650    -1.1456 C.ar    
  29 C29            3.8290    -7.8100    -9.6085 C.ar    
  30 C30            4.9559    -7.8755   -10.4064 C.ar    
  31 C31            5.3068    -6.7970   -11.1968 C.ar    
  32 C32            4.5345    -5.6506   -11.1842 C.ar    
  33 C33            1.5165    -2.5442    -1.4687 C.3     
  34 H34            2.1959     3.6323    -0.0001 H       
  35 H35            2.3843    -2.2506     0.4811 H       
  36 H36            0.6334    -2.5702     0.4961 H       
  37 H37            0.9858    -4.5693    -0.9606 H       
  38 H38            2.7368    -4.2496    -0.9756 H       
  39 H39            0.3335    -6.1353    -6.6164 H       
  40 H40            1.4030    -7.5929    -8.6150 H       
  41 H41            1.0873    -5.9405    -9.1964 H       
  42 H42            0.9817     5.8582     0.9132 H       
  43 H43            0.9643     5.8672    -0.8667 H       
  44 H44            2.8037    -4.6897   -10.3771 H       
  45 H45           -1.0431     6.3001     2.1778 H       
  46 H46           -3.2433     7.4054     2.2050 H       
  47 H47           -4.3640     7.9695     0.0863 H       
  48 H48           -3.2842     7.4290    -2.0597 H       
  49 H49           -1.0819     6.3279    -2.0868 H       
  50 H50            3.5548    -8.6526    -8.9910 H       
  51 H51            5.5624    -8.7691   -10.4120 H       
  52 H52            6.1874    -6.8480   -11.8199 H       
  53 H53            4.8086    -4.8080   -11.8017 H       
  54 H54            0.5709    -2.3438    -1.9724 H       
  55 H55            2.3218    -2.0242    -1.9874 H       
@<TRIPOS>BOND
   1    1    2 1
   2    1    3 2
   3    2    5 2
   4    3    4 1
   5    3    6 1
   6    4    5 1
   7    5    9 1
   8    6    7 am
   9    6   34 1
  10    7    8 2
  11    7   20 1
  12    9   33 1
  13    9   35 1
  14    9   36 1
  15   10   11 1
  16   10   33 1
  17   10   37 1
  18   10   38 1
  19   11   12 2
  20   11   13 1
  21   12   15 1
  22   13   14 1
  23   14   15 2
  24   14   16 1
  25   16   17 am
  26   16   39 1
  27   17   18 2
  28   17   19 1
  29   19   22 1
  30   19   40 1
  31   19   41 1
  32   20   21 1
  33   20   42 1
  34   20   43 1
  35   21   24 ar
  36   21   28 ar
  37   22   29 ar
  38   22   23 ar
  39   23   32 ar
  40   23   44 1
  41   24   25 ar
  42   24   45 1
  43   25   26 ar
  44   25   46 1
  45   26   27 ar
  46   26   47 1
  47   27   28 ar
  48   27   48 1
  49   28   49 1
  50   29   30 ar
  51   29   50 1
  52   30   31 ar
  53   30   51 1
  54   31   32 ar
  55   31   52 1
  56   32   53 1
  57   33   54 1
  58   33   55 1

#	End of record

