#	Name: ASD01180049
#	Creating user name:	WinNT
#	Creation time:	15. 06. 2019 19:06

#	Modifying user name:	WinNT
#	Modification time:	15. 06. 2019 19:06

#	Program:	/corina/corina34_cracker 3.40 0067  02.08.2006

@<TRIPOS>MOLECULE
ASD01180049
  74   77    0    0    0
SMALL
NO_CHARGES


@<TRIPOS>ATOM
   1 C1             0.0482     2.0283    -0.3321 C.ar    
   2 C2            -0.1134     0.6711    -0.1192 C.ar    
   3 C3             0.9893    -0.1376     0.0896 C.ar    
   4 C4             2.2577     0.4062     0.0860 C.ar    
   5 C5             2.4265     1.7728    -0.1285 C.ar    
   6 C6             1.3120     2.5828    -0.3378 C.ar    
   7 C7             3.6578     1.3150    -3.1629 C.3     
   8 C8             4.4203     0.7573    -1.9593 C.3     
   9 C9             4.7550     1.8807    -1.0122 C.ar    
  10 C10            3.7875     2.3633    -0.1330 C.ar    
  11 C11            6.0209     2.4284    -1.0108 C.ar    
  12 C12            6.3300     3.4629    -0.1383 C.ar    
  13 C13            5.3666     3.9493     0.7352 C.ar    
  14 C14            4.1009     3.4022     0.7420 C.ar    
  15 C15           -1.4959     0.0714    -0.1141 C.3     
  16 C16           -1.8673    -0.3658    -1.5325 C.3     
  17 C17           -3.1965    -1.0756    -1.5075 C.2     
  18 N18           -3.2637    -2.3671    -1.1280 N.am    
  19 C19           -4.5558    -3.0571    -1.1036 C.3     
  20 C20           -4.3331    -4.5626    -1.2610 C.3     
  21 C21           -3.7558    -4.8452    -2.6240 C.ar    
  22 C22           -2.3841    -4.8570    -2.8024 C.ar    
  23 C23           -1.8500    -5.1158    -4.0484 C.ar    
  24 C24           -2.6952    -5.3653    -5.1278 C.ar    
  25 C25           -4.0762    -5.3522    -4.9423 C.ar    
  26 C26           -4.5993    -5.0975    -3.6908 C.ar    
  27 C27           -2.1268    -5.6436    -6.4698 C.ar    
  28 C28           -2.5571    -6.7550    -7.1962 C.ar    
  29 C29           -1.1658    -4.7935    -7.0121 C.ar    
  30 C30           -0.6406    -5.0567    -8.2613 C.ar    
  31 C31           -1.0660    -6.1621    -8.9756 C.ar    
  32 C32           -2.0235    -7.0080    -8.4462 C.ar    
  33 F33           -3.4922    -7.5816    -6.6790 F       
  34 O34            7.5780     4.0002    -0.1389 O.3     
  35 C35            7.8277     5.0617     0.7846 C.3     
  36 N36           -1.9593     0.8155    -2.4008 N.3     
  37 O37           -4.2056    -0.4847    -1.8289 O.2     
  38 C38           -5.2456    -2.7857     0.2085 C.2     
  39 O39           -4.7105    -2.0850     1.0413 O.2     
  40 N40           -6.4570    -3.3218     0.4565 N.am    
  41 H41           -0.8159     2.6544    -0.4986 H       
  42 H42            0.8573    -1.1965     0.2560 H       
  43 H43            3.1179    -0.2260     0.2494 H       
  44 H44            1.4371     3.6425    -0.5048 H       
  45 H45            2.6965     1.7089    -2.8331 H       
  46 H46            4.2393     2.1139    -3.6230 H       
  47 H47            3.4944     0.5195    -3.8899 H       
  48 H48            3.8011     0.0216    -1.4460 H       
  49 H49            5.3407     0.2831    -2.3003 H       
  50 H50            6.7724     2.0518    -1.6889 H       
  51 H51            5.6101     4.7540     1.4131 H       
  52 H52            3.3519     3.7810     1.4217 H       
  53 H53           -1.5144    -0.7933     0.5492 H       
  54 H54           -2.2127     0.8138     0.2367 H       
  55 H55           -1.1023    -1.0405    -1.9168 H       
  56 H56           -2.4566    -2.8397    -0.8709 H       
  57 H57           -5.1770    -2.6941    -1.9225 H       
  58 H58           -3.6406    -4.9095    -0.4940 H       
  59 H59           -5.2844    -5.0837    -1.1541 H       
  60 H60           -1.7300    -4.6631    -1.9652 H       
  61 H61           -0.7789    -5.1244    -4.1867 H       
  62 H62           -4.7358    -5.5449    -5.7755 H       
  63 H63           -5.6695    -5.0874    -3.5458 H       
  64 H64           -0.8325    -3.9296    -6.4563 H       
  65 H65            0.1043    -4.3975    -8.6822 H       
  66 H66           -0.6519    -6.3631    -9.9526 H       
  67 H67           -2.3520    -7.8697    -9.0083 H       
  68 H68            8.8590     5.3987     0.6806 H       
  69 H69            7.1517     5.8910     0.5763 H       
  70 H70            7.6628     4.7051     1.8013 H       
  71 H71           -2.1402     0.5484    -3.3568 H       
  72 H72           -2.6623     1.4569    -2.0654 H       
  73 H73           -6.8850    -3.8822    -0.2096 H       
  74 H74           -6.9010    -3.1471     1.3010 H       
@<TRIPOS>BOND
   1    1    2 ar
   2    1    6 ar
   3    1   41 1
   4    2    3 ar
   5    2   15 1
   6    3    4 ar
   7    3   42 1
   8    4    5 ar
   9    4   43 1
  10    5    6 ar
  11    5   10 1
  12    6   44 1
  13    7    8 1
  14    7   45 1
  15    7   46 1
  16    7   47 1
  17    8    9 1
  18    8   48 1
  19    8   49 1
  20    9   10 ar
  21    9   11 ar
  22   10   14 ar
  23   11   12 ar
  24   11   50 1
  25   12   13 ar
  26   12   34 1
  27   13   14 ar
  28   13   51 1
  29   14   52 1
  30   15   16 1
  31   15   53 1
  32   15   54 1
  33   16   17 1
  34   16   36 1
  35   16   55 1
  36   17   18 am
  37   17   37 2
  38   18   19 1
  39   18   56 1
  40   19   20 1
  41   19   38 1
  42   19   57 1
  43   20   21 1
  44   20   58 1
  45   20   59 1
  46   21   22 ar
  47   21   26 ar
  48   22   23 ar
  49   22   60 1
  50   23   24 ar
  51   23   61 1
  52   24   25 ar
  53   24   27 1
  54   25   26 ar
  55   25   62 1
  56   26   63 1
  57   27   28 ar
  58   27   29 ar
  59   28   33 1
  60   28   32 ar
  61   29   30 ar
  62   29   64 1
  63   30   31 ar
  64   30   65 1
  65   31   32 ar
  66   31   66 1
  67   32   67 1
  68   34   35 1
  69   35   68 1
  70   35   69 1
  71   35   70 1
  72   36   71 1
  73   36   72 1
  74   38   39 2
  75   38   40 am
  76   40   73 1
  77   40   74 1

#	End of record

