#	Name: ASD03330068
#	Creating user name:	WinNT
#	Creation time:	15. 06. 2019 20:36

#	Modifying user name:	WinNT
#	Modification time:	15. 06. 2019 20:36

#	Program:	/corina/corina34_cracker 3.40 0067  02.08.2006

@<TRIPOS>MOLECULE
ASD03330068
  73   77    0    0    0
SMALL
NO_CHARGES


@<TRIPOS>ATOM
   1 C1             0.1332     1.4745     0.0175 C.2     
   2 C2             0.0272     0.2604     0.6271 C.2     
   3 C3             1.3327     2.1225     0.2282 C.2     
   4 C4             2.2192     1.4293     1.0202 C.2     
   5 S5             1.5020    -0.0982     1.5134 S.3     
   6 C6             3.5667     1.8970     1.3981 C.ar    
   7 C7             3.9711     1.8670     2.7363 C.ar    
   8 C8             4.4465     2.3663     0.4203 C.ar    
   9 C9             5.7047     2.8020     0.7807 C.ar    
  10 C10            6.0969     2.7747     2.1073 C.ar    
  11 C11            5.2333     2.3063     3.0817 C.ar    
  12 C12            1.6407     3.4524    -0.3501 C.ar    
  13 C13            1.5496     3.6538    -1.7267 C.ar    
  14 C14            2.0167     4.5060     0.4821 C.ar    
  15 C15            2.3022     5.7421    -0.0590 C.ar    
  16 C16            2.2155     5.9378    -1.4305 C.ar    
  17 C17            1.8364     4.8924    -2.2614 C.ar    
  18 C18           -1.1444    -0.6171     0.5547 C.2     
  19 O19           -2.2635    -0.1464     0.6417 O.2     
  20 O20            2.4971     7.1572    -1.9605 O.3     
  21 N21           -0.9826    -1.9451     0.3920 N.am    
  22 C22           -2.1462    -2.8252     0.2179 C.3     
  23 C23            0.3610    -2.5396     0.3791 C.3     
  24 C24            0.5207    -3.3695    -0.8986 C.3     
  25 C25           -0.6181    -4.3881    -0.9862 C.3     
  26 C26           -1.9531    -3.6513    -1.0576 C.3     
  27 C27           -0.4452    -5.2292    -2.2247 C.ar    
  28 C28           -1.3758    -5.1575    -3.2443 C.ar    
  29 C29           -1.2173    -5.9291    -4.3803 C.ar    
  30 C30           -0.1278    -6.7719    -4.4968 C.ar    
  31 C31            0.8033    -6.8428    -3.4776 C.ar    
  32 C32            0.6471    -6.0681    -2.3435 C.ar    
  33 Cl33           2.8887     1.2796     3.9598 Cl      
  34 C34           -0.5922    -5.2761     0.2311 C.2     
  35 O35            0.3256    -5.1970     1.0200 O.2     
  36 N36           -1.5889    -6.1582     0.4431 N.am    
  37 S37            3.9593     7.3452    -2.3387 S.o2    
  38 C38            4.1610     6.3794    -3.8609 C.3     
  39 C39            5.6075     6.4897    -4.3470 C.3     
  40 C40            5.7776     5.6751    -5.6309 C.3     
  41 O41            4.0749     8.7351    -2.6110 O.2     
  42 O42            4.6777     6.7461    -1.2691 O.2     
  43 F43            4.9157     6.1705    -6.6152 F       
  44 F44            7.1003     5.7760    -6.0754 F       
  45 F45            5.4724     4.3338    -5.3759 F       
  46 H46           -0.6576     1.8943    -0.5865 H       
  47 H47            4.1425     2.3878    -0.6159 H       
  48 H48            6.3857     3.1652     0.0252 H       
  49 H49            7.0834     3.1169     2.3831 H       
  50 H50            5.5460     2.2882     4.1153 H       
  51 H51            1.2550     2.8408    -2.3737 H       
  52 H52            2.0840     4.3544     1.5493 H       
  53 H53            2.5931     6.5587     0.5851 H       
  54 H54            1.7699     5.0480    -3.3280 H       
  55 H55           -2.2314    -3.4922     1.0758 H       
  56 H56           -3.0502    -2.2226     0.1297 H       
  57 H57            1.1107    -1.7486     0.3972 H       
  58 H58            0.4843    -3.1828     1.2504 H       
  59 H59            0.4875    -2.7111    -1.7666 H       
  60 H60            1.4763    -3.8933    -0.8751 H       
  61 H61           -2.7638    -4.3749    -1.1436 H       
  62 H62           -1.9591    -2.9926    -1.9260 H       
  63 H63           -2.2270    -4.4991    -3.1532 H       
  64 H64           -1.9448    -5.8737    -5.1766 H       
  65 H65           -0.0043    -7.3752    -5.3841 H       
  66 H66            1.6544    -7.5016    -3.5685 H       
  67 H67            1.3746    -6.1235    -1.5472 H       
  68 H68           -2.2843    -6.2736    -0.2233 H       
  69 H69           -1.6109    -6.6776     1.2620 H       
  70 H70            3.9232     5.3343    -3.6622 H       
  71 H71            3.4895     6.7654    -4.6278 H       
  72 H72            5.8453     7.5348    -4.5456 H       
  73 H73            6.2790     6.1037    -3.5801 H       
@<TRIPOS>BOND
   1    1    2 2
   2    1    3 1
   3    1   46 1
   4    2   18 1
   5    2    5 1
   6    3    4 2
   7    3   12 1
   8    4    5 1
   9    4    6 1
  10    6    7 ar
  11    6    8 ar
  12    7   33 1
  13    7   11 ar
  14    8    9 ar
  15    8   47 1
  16    9   10 ar
  17    9   48 1
  18   10   11 ar
  19   10   49 1
  20   11   50 1
  21   12   13 ar
  22   12   14 ar
  23   13   17 ar
  24   13   51 1
  25   14   15 ar
  26   14   52 1
  27   15   16 ar
  28   15   53 1
  29   16   17 ar
  30   16   20 1
  31   17   54 1
  32   18   19 2
  33   18   21 am
  34   20   37 1
  35   21   22 1
  36   21   23 1
  37   22   26 1
  38   22   55 1
  39   22   56 1
  40   23   24 1
  41   23   57 1
  42   23   58 1
  43   24   25 1
  44   24   59 1
  45   24   60 1
  46   25   26 1
  47   25   27 1
  48   25   34 1
  49   26   61 1
  50   26   62 1
  51   27   28 ar
  52   27   32 ar
  53   28   29 ar
  54   28   63 1
  55   29   30 ar
  56   29   64 1
  57   30   31 ar
  58   30   65 1
  59   31   32 ar
  60   31   66 1
  61   32   67 1
  62   34   35 2
  63   34   36 am
  64   36   68 1
  65   36   69 1
  66   37   38 1
  67   37   41 2
  68   37   42 2
  69   38   39 1
  70   38   70 1
  71   38   71 1
  72   39   40 1
  73   39   72 1
  74   39   73 1
  75   40   43 1
  76   40   44 1
  77   40   45 1

#	End of record

