#	Name: ASD02560539
#	Creating user name:	WinNT
#	Creation time:	15. 06. 2019 20:25

#	Modifying user name:	WinNT
#	Modification time:	15. 06. 2019 20:25

#	Program:	/corina/corina34_cracker 3.40 0067  02.08.2006

@<TRIPOS>MOLECULE
ASD02560539
  51   53    0    0    0
SMALL
NO_CHARGES


@<TRIPOS>ATOM
   1 N1            -0.0192     1.2805     0.0825 N.2     
   2 N2            -0.0011    -0.0042     0.0574 N.2     
   3 C3             1.1977     1.7477     0.0504 C.2     
   4 N4             2.0452     0.6721     0.0013 N.pl3   
   5 C5             1.2381    -0.4337     0.0074 C.2     
   6 S6             1.7634    -2.1149    -0.0424 S.3     
   7 C7             0.1566    -2.9474    -0.0041 C.3     
   8 C8             0.3632    -4.4398    -0.0396 C.2     
   9 O9             1.4861    -4.8956    -0.0861 O.2     
  10 N10           -0.7000    -5.2679    -0.0195 N.am    
  11 C11            3.4440     0.6985    -0.0458 C.ar    
  12 Br12           1.6996     3.5708     0.0683 Br      
  13 C13            4.1787     0.6886     1.1193 C.ar    
  14 C14            5.5698     0.7142     1.0839 C.ar    
  15 C15            6.2422     0.7499    -0.0995 C.ar    
  16 C16            5.5299     0.7610    -1.3106 C.ar    
  17 C17            4.1136     0.7294    -1.2868 C.ar    
  18 C18            6.1968     0.7971    -2.5475 C.ar    
  19 C19            5.4755     0.8065    -3.7016 C.ar    
  20 C20            4.0824     0.7813    -3.6770 C.ar    
  21 C21            3.4033     0.7397    -2.4977 C.ar    
  22 C22            7.7489     0.7780    -0.1104 C.3     
  23 C23           -0.5134    -6.6444    -0.1339 C.ar    
  24 C24           -1.5327    -7.4434    -0.6470 C.ar    
  25 C25           -1.3515    -8.8034    -0.7617 C.ar    
  26 C26           -0.1416    -9.3821    -0.3621 C.ar    
  27 C27            0.8791    -8.5757     0.1525 C.ar    
  28 C28            0.6925    -7.2162     0.2592 C.ar    
  29 C29            0.0564   -10.8360    -0.4826 C.2     
  30 O30           -0.8374   -11.5399    -0.9325 O.co2   
  31 Cl31          -3.0330    -6.7237    -1.1416 Cl      
  32 C32            8.2312     2.2265    -0.2115 C.3     
  33 O33            1.1147   -11.3403    -0.1328 O.co2   
  34 H34           -0.3719    -2.6754     0.9095 H       
  35 H35           -0.4318    -2.6414    -0.8691 H       
  36 H36           -1.5950    -4.9059     0.0745 H       
  37 H37            3.6694     0.6611     2.0713 H       
  38 H38            6.1250     0.7058     2.0103 H       
  39 H39            7.2760     0.8177    -2.5819 H       
  40 H40            5.9903     0.8343    -4.6505 H       
  41 H41            3.5335     0.7902    -4.6070 H       
  42 H42            2.3235     0.7202    -2.4936 H       
  43 H43            8.1273     0.3324     0.8096 H       
  44 H44            8.1167     0.2120    -0.9662 H       
  45 H45           -2.1420    -9.4227    -1.1592 H       
  46 H46            1.8140    -9.0190     0.4621 H       
  47 H47            1.4804    -6.5934     0.6565 H       
  48 H48            9.3210     2.2468    -0.2193 H       
  49 H49            7.8529     2.6720    -1.1315 H       
  50 H50            7.8635     2.7925     0.6444 H       
  51 Na51          14.3210     8.5708     7.0713 Du      
@<TRIPOS>BOND
   1    1    2 1
   2    1    3 2
   3    2    5 2
   4    3    4 1
   5    3   12 1
   6    4    5 1
   7    4   11 1
   8    5    6 1
   9    6    7 1
  10    7    8 1
  11    7   34 1
  12    7   35 1
  13    8    9 2
  14    8   10 am
  15   10   23 1
  16   10   36 1
  17   11   13 ar
  18   11   17 ar
  19   13   14 ar
  20   13   37 1
  21   14   15 ar
  22   14   38 1
  23   15   16 ar
  24   15   22 1
  25   16   17 ar
  26   16   18 ar
  27   17   21 ar
  28   18   19 ar
  29   18   39 1
  30   19   20 ar
  31   19   40 1
  32   20   21 ar
  33   20   41 1
  34   21   42 1
  35   22   32 1
  36   22   43 1
  37   22   44 1
  38   23   24 ar
  39   23   28 ar
  40   24   25 ar
  41   24   31 1
  42   25   26 ar
  43   25   45 1
  44   26   27 ar
  45   26   29 1
  46   27   28 ar
  47   27   46 1
  48   28   47 1
  49   29   30 ar
  50   29   33 ar
  51   32   48 1
  52   32   49 1
  53   32   50 1

#	End of record

