#	Name: ASD01811090
#	Creating user name:	WinNT
#	Creation time:	15. 06. 2019 19:26

#	Modifying user name:	WinNT
#	Modification time:	15. 06. 2019 19:26

#	Program:	/corina/corina34_cracker 3.40 0067  02.08.2006

@<TRIPOS>MOLECULE
ASD01811090
  47   50    0    0    0
SMALL
NO_CHARGES


@<TRIPOS>ATOM
   1 C1            -1.8712     1.4106     0.1937 C.2     
   2 C2            -1.9755     0.0567     0.1854 C.2     
   3 N3            -0.8834    -0.7389    -0.0387 N.pl3   
   4 C4             0.3411    -0.2544    -0.2704 C.2     
   5 C5             0.5771     1.1077    -0.2945 C.2     
   6 C6            -0.5536     2.0146    -0.0532 C.2     
   7 C7            -1.0657    -2.1924    -0.0232 C.3     
   8 C8            -0.9069    -2.7037     1.3855 C.ar    
   9 O9            -0.4055     3.2255    -0.0633 O.2     
  10 C10            1.9268     1.6356    -0.5517 C.2     
  11 O11            2.8514     0.8711    -0.7463 O.2     
  12 O12            2.1374     2.9667    -0.5713 O.3     
  13 C13           -2.0251    -2.9165     2.1714 C.ar    
  14 C14           -1.8856    -3.3846     3.4622 C.ar    
  15 C15           -0.6153    -3.6429     3.9734 C.ar    
  16 C16            0.5076    -3.4267     3.1773 C.ar    
  17 C17            0.3561    -2.9637     1.8859 C.ar    
  18 C18           -0.4590    -4.1458     5.3607 C.ar    
  19 C19            0.8112    -4.4041     5.8718 C.ar    
  20 C20            0.9508    -4.8718     7.1628 C.ar    
  21 C21           -0.1674    -5.0847     7.9487 C.ar    
  22 C22           -1.4307    -4.8304     7.4462 C.ar    
  23 C23           -1.5816    -4.3561     6.1588 C.ar    
  24 C24           -3.0470     2.3094     0.4510 C.3     
  25 C25           -4.3652     1.6063     0.1378 C.3     
  26 C26           -4.4258     0.2845     0.9160 C.3     
  27 C27           -3.2928    -0.5847     0.4140 C.2     
  28 O28           -3.4567    -1.7635     0.2054 O.2     
  29 H29            1.1593    -0.9383    -0.4411 H       
  30 H30           -2.0630    -2.4374    -0.3884 H       
  31 H31           -0.3188    -2.6591    -0.6655 H       
  32 H32            3.0405     3.2658    -0.7442 H       
  33 H33           -3.0092    -2.7157     1.7743 H       
  34 H34           -2.7593    -3.5501     4.0751 H       
  35 H35            1.4945    -3.6253     3.5685 H       
  36 H36            1.2258    -2.7958     1.2680 H       
  37 H37            1.6849    -4.2389     5.2588 H       
  38 H38            1.9349    -5.0723     7.5600 H       
  39 H39           -0.0536    -5.4511     8.9582 H       
  40 H40           -2.3005    -4.9987     8.0640 H       
  41 H41           -2.5684    -4.1576     5.7676 H       
  42 H42           -3.0434     2.6099     1.4987 H       
  43 H43           -2.9598     3.1982    -0.1740 H       
  44 H44           -5.1979     2.2433     0.4359 H       
  45 H45           -4.4248     1.4029    -0.9314 H       
  46 H46           -4.3024     0.4756     1.9820 H       
  47 H47           -5.3806    -0.2092     0.7348 H       
@<TRIPOS>BOND
   1    1    2 2
   2    1   24 1
   3    1    6 1
   4    2    3 1
   5    2   27 1
   6    3    4 1
   7    3    7 1
   8    4    5 2
   9    4   29 1
  10    5    6 1
  11    5   10 1
  12    6    9 2
  13    7    8 1
  14    7   30 1
  15    7   31 1
  16    8   13 ar
  17    8   17 ar
  18   10   11 2
  19   10   12 1
  20   12   32 1
  21   13   14 ar
  22   13   33 1
  23   14   15 ar
  24   14   34 1
  25   15   16 ar
  26   15   18 1
  27   16   17 ar
  28   16   35 1
  29   17   36 1
  30   18   19 ar
  31   18   23 ar
  32   19   20 ar
  33   19   37 1
  34   20   21 ar
  35   20   38 1
  36   21   22 ar
  37   21   39 1
  38   22   23 ar
  39   22   40 1
  40   23   41 1
  41   24   25 1
  42   24   42 1
  43   24   43 1
  44   25   26 1
  45   25   44 1
  46   25   45 1
  47   26   27 1
  48   26   46 1
  49   26   47 1
  50   27   28 2

#	End of record

