#	Name: ASD01816505
#	Creating user name:	WinNT
#	Creation time:	15. 06. 2019 19:35

#	Modifying user name:	WinNT
#	Modification time:	15. 06. 2019 19:35

#	Program:	/corina/corina34_cracker 3.40 0067  02.08.2006

@<TRIPOS>MOLECULE
ASD01816505
  68   74    0    0    0
SMALL
NO_CHARGES


@<TRIPOS>ATOM
   1 C1            -0.0509     1.4800    -0.1008 C.ar    
   2 C2            -0.0518     0.0948    -0.1271 C.ar    
   3 C3             1.1346    -0.6090    -0.1380 C.ar    
   4 C4             2.3476     0.0704    -0.1227 C.ar    
   5 C5             2.3451     1.4750    -0.0960 C.ar    
   6 C6             1.1421     2.1733    -0.0853 C.ar    
   7 N7             3.5416    -0.6298    -0.1330 N.pl3   
   8 C8             4.7420    -0.0284    -0.1187 C.2     
   9 C9             4.8645     1.3386    -0.0925 C.2     
  10 C10            3.6433     2.1759    -0.0801 C.2     
  11 C11            5.9752     2.2853    -0.0722 C.2     
  12 N12            5.4202     3.5163    -0.0509 N.am    
  13 N13            4.0264     3.4202    -0.0562 N.2     
  14 C14            6.1394     4.7180    -0.0262 C.ar    
  15 O15            7.1660     2.0181    -0.0742 O.2     
  16 C16            3.4933    -2.0938    -0.1604 C.3     
  17 C17            3.4799    -2.5693    -1.5903 C.ar    
  18 C18            4.6715    -2.8265    -2.2431 C.ar    
  19 C19            4.6625    -3.2620    -3.5538 C.ar    
  20 C20            3.4554    -3.4419    -4.2158 C.ar    
  21 C21            2.2607    -3.1832    -3.5576 C.ar    
  22 C22            2.2760    -2.7529    -2.2452 C.ar    
  23 N23            3.4430    -3.8833    -5.5462 N.pl3   
  24 C24            2.3433    -4.0983    -6.3032 C.2     
  25 C25            2.7575    -4.5167    -7.5216 C.2     
  26 C26            4.1560    -4.5592    -7.5100 C.2     
  27 N27            4.5678    -4.1741    -6.3289 N.2     
  28 C28            7.0902     4.9799    -1.0016 C.ar    
  29 C29            7.7987     6.1664    -0.9751 C.ar    
  30 C30            7.5629     7.0953     0.0217 C.ar    
  31 C31            6.6175     6.8427     0.9982 C.ar    
  32 C32            5.8975     5.6577     0.9762 C.ar    
  33 N33            4.9394     5.3996     1.9642 N.am    
  34 C34            4.3408     6.4225     2.6059 C.2     
  35 O35            4.6836     7.5639     2.3800 O.2     
  36 C36            3.2456     6.1482     3.6040 C.3     
  37 C37            2.7277     7.4711     4.1951 C.3     
  38 C38            1.2312     7.5605     3.8313 C.3     
  39 C39            0.8069     6.0882     3.6046 C.3     
  40 C40            2.0457     5.4798     2.9016 C.3     
  41 H41           -0.9868     2.0190    -0.0970 H       
  42 H42           -0.9905    -0.4392    -0.1388 H       
  43 H43            1.1212    -1.6887    -0.1582 H       
  44 H44            1.1419     3.2531    -0.0651 H       
  45 H45            5.6347    -0.6362    -0.1277 H       
  46 H46            4.3697    -2.4958     0.3480 H       
  47 H47            2.5907    -2.4371     0.3451 H       
  48 H48            5.6102    -2.6864    -1.7276 H       
  49 H49            5.5935    -3.4621    -4.0633 H       
  50 H50            1.3202    -3.3219    -4.0700 H       
  51 H51            1.3469    -2.5515    -1.7326 H       
  52 H52            1.3185    -3.9613    -5.9912 H       
  53 H53            2.1210    -4.7726    -8.3557 H       
  54 H54            4.7871    -4.8545    -8.3352 H       
  55 H55            7.2773     4.2565    -1.7814 H       
  56 H56            8.5389     6.3685    -1.7351 H       
  57 H57            8.1193     8.0208     0.0377 H       
  58 H58            6.4365     7.5702     1.7756 H       
  59 H59            4.7065     4.4847     2.1867 H       
  60 H60            3.6191     5.5044     4.4003 H       
  61 H61            2.8491     7.4690     5.2784 H       
  62 H62            3.2685     8.3116     3.7601 H       
  63 H63            0.6644     7.9987     4.6528 H       
  64 H64            1.0943     8.1416     2.9194 H       
  65 H65            0.6187     5.5896     4.5555 H       
  66 H66           -0.0694     6.0338     2.9586 H       
  67 H67            2.0404     5.7250     1.8396 H       
  68 H68            2.0734     4.3996     3.0446 H       
@<TRIPOS>BOND
   1    1    2 ar
   2    1    6 ar
   3    1   41 1
   4    2    3 ar
   5    2   42 1
   6    3    4 ar
   7    3   43 1
   8    4    5 ar
   9    4    7 1
  10    5    6 ar
  11    5   10 1
  12    6   44 1
  13    7    8 1
  14    7   16 1
  15    8    9 2
  16    8   45 1
  17    9   10 1
  18    9   11 1
  19   10   13 2
  20   11   12 am
  21   11   15 2
  22   12   13 1
  23   12   14 1
  24   14   28 ar
  25   14   32 ar
  26   16   17 1
  27   16   46 1
  28   16   47 1
  29   17   18 ar
  30   17   22 ar
  31   18   19 ar
  32   18   48 1
  33   19   20 ar
  34   19   49 1
  35   20   21 ar
  36   20   23 1
  37   21   22 ar
  38   21   50 1
  39   22   51 1
  40   23   24 1
  41   23   27 1
  42   24   25 2
  43   24   52 1
  44   25   26 1
  45   25   53 1
  46   26   27 2
  47   26   54 1
  48   28   29 ar
  49   28   55 1
  50   29   30 ar
  51   29   56 1
  52   30   31 ar
  53   30   57 1
  54   31   32 ar
  55   31   58 1
  56   32   33 1
  57   33   34 am
  58   33   59 1
  59   34   35 2
  60   34   36 1
  61   36   37 1
  62   36   40 1
  63   36   60 1
  64   37   38 1
  65   37   61 1
  66   37   62 1
  67   38   39 1
  68   38   63 1
  69   38   64 1
  70   39   40 1
  71   39   65 1
  72   39   66 1
  73   40   67 1
  74   40   68 1

#	End of record

