#	Name: ASD01150331
#	Creating user name:	WinNT
#	Creation time:	15. 06. 2019 19:04

#	Modifying user name:	WinNT
#	Modification time:	15. 06. 2019 19:04

#	Program:	/corina/corina34_cracker 3.40 0067  02.08.2006

@<TRIPOS>MOLECULE
ASD01150331
  66   68    0    0    0
SMALL
NO_CHARGES


@<TRIPOS>ATOM
   1 N1             0.0604     1.3325    -0.0710 N.pl3   
   2 C2             0.0554    -0.0639    -0.0965 C.2     
   3 C3            -1.2796    -0.4433    -0.0385 C.2     
   4 N4            -2.0177     0.6686     0.0179 N.2     
   5 C5            -1.2378     1.7292     0.0047 C.2     
   6 C6             1.1769    -0.9151    -0.1672 C.2     
   7 C7             1.1869     2.1644    -0.1097 C.ar    
   8 C8             1.3932     3.0061    -1.1947 C.ar    
   9 C9             2.5048     3.8250    -1.2300 C.ar    
  10 C10            3.4118     3.8073    -0.1864 C.ar    
  11 C11            3.2092     2.9702     0.8955 C.ar    
  12 C12            2.0965     2.1531     0.9393 C.ar    
  13 N13           -1.6693     3.0348     0.0513 N.3     
  14 C14           -3.1352     3.1026     0.1184 C.3     
  15 C15           -1.0570     3.7518     1.1778 C.3     
  16 O16            1.0244    -2.1231    -0.1820 O.2     
  17 O17            2.4203    -0.3907    -0.2185 O.3     
  18 C18            3.5105    -1.3120    -0.2889 C.3     
  19 C19            3.3733    -2.1690    -1.5489 C.3     
  20 C20            4.8295    -0.5384    -0.3393 C.3     
  21 C21            3.4957    -2.2150     0.9461 C.3     
  22 N22           -1.7616    -1.7477    -0.0395 N.am    
  23 C23           -3.0885    -1.9758     0.0209 C.2     
  24 O24           -3.8622    -1.0436     0.0762 O.2     
  25 C25           -3.6109    -3.3894     0.0199 C.3     
  26 O26           -2.6914    -4.2376     0.7106 O.3     
  27 C27           -4.9493    -3.4309     0.7113 C.ar    
  28 C28           -2.4731    -3.8698     2.0741 C.3     
  29 C29           -5.1918    -2.6109     1.7974 C.ar    
  30 C30           -6.4195    -2.6490     2.4317 C.ar    
  31 C31           -7.4047    -3.5068     1.9797 C.ar    
  32 C32           -7.1624    -4.3262     0.8930 C.ar    
  33 C33           -5.9363    -4.2850     0.2560 C.ar    
  34 C34           -3.7670    -3.8743    -1.4228 C.3     
  35 F35           -2.5609    -3.6940    -2.1085 F       
  36 F36           -4.1060    -5.2317    -1.4245 F       
  37 F37           -4.7768    -3.1407    -2.0547 F       
  38 H38            0.6853     3.0201    -2.0102 H       
  39 H39            2.6659     4.4797    -2.0737 H       
  40 H40            4.2805     4.4484    -0.2164 H       
  41 H41            3.9196     2.9584     1.7089 H       
  42 H42            1.9386     1.4998     1.7847 H       
  43 H43           -3.4822     2.5877     1.0143 H       
  44 H44           -3.4494     4.1457     0.1543 H       
  45 H45           -3.5618     2.6248    -0.7635 H       
  46 H46            0.0272     3.7459     1.0661 H       
  47 H47           -1.4153     4.7811     1.1912 H       
  48 H48           -1.3287     3.2603     2.1120 H       
  49 H49            3.3839    -1.5257    -2.4288 H       
  50 H50            4.2049    -2.8717    -1.6027 H       
  51 H51            2.4336    -2.7201    -1.5130 H       
  52 H52            4.9272     0.0722     0.5584 H       
  53 H53            5.6610    -1.2411    -0.3930 H       
  54 H54            4.8400     0.1049    -1.2192 H       
  55 H55            2.5560    -2.7661     0.9820 H       
  56 H56            4.3272    -2.9177     0.8924 H       
  57 H57            3.5934    -1.6044     1.8438 H       
  58 H58           -1.1428    -2.4934    -0.0837 H       
  59 H59           -3.4175    -3.9097     2.6169 H       
  60 H60           -1.7636    -4.5617     2.5280 H       
  61 H61           -2.0717    -2.8573     2.1175 H       
  62 H62           -4.4221    -1.9407     2.1506 H       
  63 H63           -6.6087    -2.0088     3.2807 H       
  64 H64           -8.3636    -3.5371     2.4757 H       
  65 H65           -7.9321    -4.9966     0.5400 H       
  66 H66           -5.7470    -4.9251    -0.5930 H       
@<TRIPOS>BOND
   1    1    2 1
   2    1    7 1
   3    1    5 1
   4    2    3 2
   5    2    6 1
   6    3    4 1
   7    3   22 1
   8    4    5 2
   9    5   13 1
  10    6   16 2
  11    6   17 1
  12    7    8 ar
  13    7   12 ar
  14    8    9 ar
  15    8   38 1
  16    9   10 ar
  17    9   39 1
  18   10   11 ar
  19   10   40 1
  20   11   12 ar
  21   11   41 1
  22   12   42 1
  23   13   14 1
  24   13   15 1
  25   14   43 1
  26   14   44 1
  27   14   45 1
  28   15   46 1
  29   15   47 1
  30   15   48 1
  31   17   18 1
  32   18   19 1
  33   18   20 1
  34   18   21 1
  35   19   49 1
  36   19   50 1
  37   19   51 1
  38   20   52 1
  39   20   53 1
  40   20   54 1
  41   21   55 1
  42   21   56 1
  43   21   57 1
  44   22   23 am
  45   22   58 1
  46   23   24 2
  47   23   25 1
  48   25   26 1
  49   25   27 1
  50   25   34 1
  51   26   28 1
  52   27   29 ar
  53   27   33 ar
  54   28   59 1
  55   28   60 1
  56   28   61 1
  57   29   30 ar
  58   29   62 1
  59   30   31 ar
  60   30   63 1
  61   31   32 ar
  62   31   64 1
  63   32   33 ar
  64   32   65 1
  65   33   66 1
  66   34   35 1
  67   34   36 1
  68   34   37 1

#	End of record

