#	Name: ASD01903003
#	Creating user name:	WinNT
#	Creation time:	15. 06. 2019 19:54

#	Modifying user name:	WinNT
#	Modification time:	15. 06. 2019 19:54

#	Program:	/corina/corina34_cracker 3.40 0067  02.08.2006

@<TRIPOS>MOLECULE
ASD01903003
  25   26    0    0    0
SMALL
NO_CHARGES


@<TRIPOS>ATOM
   1 C1             2.1043     1.3938     0.7643 C.ar    
   2 C2             2.1185     0.0131     0.7488 C.ar    
   3 C3             1.2122    -0.6807    -0.0320 C.ar    
   4 C4             0.2881     0.0058    -0.7998 C.ar    
   5 C5             0.2687     1.3881    -0.7880 C.ar    
   6 C6             1.1780     2.0867    -0.0051 C.ar    
   7 N7             1.1613     3.4848     0.0092 N.am    
   8 C8            -0.0102     4.1456    -0.0778 C.2     
   9 O9            -1.0433     3.5303    -0.2538 O.2     
  10 C10           -0.0384     5.6219     0.0411 C.ar    
  11 Cl11          -0.8474    -0.8692    -1.7790 Cl      
  12 N12            1.0932     6.2884     0.2333 N.ar    
  13 C13            1.1119     7.5989     0.3436 C.ar    
  14 C14           -0.0582     8.3365     0.2632 C.ar    
  15 C15           -1.2629     7.6804     0.0630 C.ar    
  16 C16           -1.2519     6.2997    -0.0554 C.ar    
  17 H17            2.8098     1.9346     1.3777 H       
  18 H18            2.8385    -0.5256     1.3469 H       
  19 H19            1.2260    -1.7606    -0.0429 H       
  20 H20           -0.4524     1.9239    -1.3876 H       
  21 H21            1.9927     3.9791     0.0818 H       
  22 H22            2.0521     8.1069     0.4995 H       
  23 H23           -0.0321     9.4122     0.3558 H       
  24 H24           -2.1885     8.2329    -0.0029 H       
  25 H25           -2.1718     5.7560    -0.2120 H       
@<TRIPOS>BOND
   1    1    2 ar
   2    1    6 ar
   3    1   17 1
   4    2    3 ar
   5    2   18 1
   6    3    4 ar
   7    3   19 1
   8    4    5 ar
   9    4   11 1
  10    5    6 ar
  11    5   20 1
  12    6    7 1
  13    7    8 am
  14    7   21 1
  15    8    9 2
  16    8   10 1
  17   10   12 ar
  18   10   16 ar
  19   12   13 ar
  20   13   14 ar
  21   13   22 1
  22   14   15 ar
  23   14   23 1
  24   15   16 ar
  25   15   24 1
  26   16   25 1

#	End of record

