#	Name: ASD03320080
#	Creating user name:	WinNT
#	Creation time:	15. 06. 2019 20:36

#	Modifying user name:	WinNT
#	Modification time:	15. 06. 2019 20:36

#	Program:	/corina/corina34_cracker 3.40 0067  02.08.2006

@<TRIPOS>MOLECULE
ASD03320080
  51   53    0    0    0
SMALL
NO_CHARGES


@<TRIPOS>ATOM
   1 C1            -0.0817     1.4850     0.3015 C.2     
   2 C2            -0.0207     0.0309     0.0567 C.ar    
   3 C3             1.1961    -0.5832    -0.2556 C.ar    
   4 C4             1.2017    -1.9639    -0.4784 C.ar    
   5 C5            -0.0135    -2.6749    -0.3792 C.ar    
   6 N6            -1.1409    -2.0461    -0.0802 N.ar    
   7 C7            -1.1782    -0.7494     0.1402 C.ar    
   8 O8             0.9300     2.1562     0.2320 O.2     
   9 N9            -1.2595     2.0699     0.5965 N.am    
  10 C10           -1.3017     3.4287     0.9329 C.ar    
  11 C11           -2.4036     4.1973     0.5818 C.ar    
  12 C12           -2.4445     5.5370     0.9138 C.ar    
  13 C13           -1.3849     6.1152     1.5975 C.ar    
  14 C14           -0.2838     5.3480     1.9485 C.ar    
  15 C15           -0.2442     4.0067     1.6227 C.ar    
  16 O16           -1.4255     7.4347     1.9233 O.3     
  17 C17           -0.3001     7.9641     2.6271 C.3     
  18 F18            0.8528     7.8037     1.8511 F       
  19 F19           -0.5063     9.3244     2.8805 F       
  20 F20           -0.1452     7.2823     3.8389 F       
  21 C21            2.4489    -2.6608    -0.8099 C.2     
  22 C22            3.5363    -1.9537    -1.2058 C.2     
  23 C23            4.7329    -2.6224    -1.5238 C.2     
  24 C24            5.9412    -1.8366    -1.9637 C.3     
  25 O25            4.7918    -3.8331    -1.4438 O.2     
  26 N26           -0.0276    -4.0356    -0.5957 N.3     
  27 C27           -0.5432    -4.7532     0.5847 C.3     
  28 C28           -1.7481    -5.5963     0.1170 C.3     
  29 C29           -1.4968    -5.7503    -1.4061 C.3     
  30 C30           -0.8715    -4.3780    -1.7604 C.3     
  31 O31           -1.7519    -6.8724     0.7601 O.3     
  32 H32            2.1069    -0.0067    -0.3234 H       
  33 H33           -2.1191    -0.2792     0.3853 H       
  34 H34           -2.0780     1.5497     0.5759 H       
  35 H35           -3.2283     3.7475     0.0490 H       
  36 H36           -3.3015     6.1350     0.6408 H       
  37 H37            0.5409     5.7989     2.4805 H       
  38 H38            0.6112     3.4085     1.9000 H       
  39 H39            2.5013    -3.7372    -0.7387 H       
  40 H40            3.4839    -0.8773    -1.2769 H       
  41 H41            6.5370    -1.5677    -1.0914 H       
  42 H42            6.5422    -2.4432    -2.6412 H       
  43 H43            5.6185    -0.9306    -2.4766 H       
  44 H44            0.2308    -5.4052     0.9895 H       
  45 H45           -0.8627    -4.0383     1.3429 H       
  46 H46           -2.6833    -5.0676     0.3018 H       
  47 H47           -0.7970    -6.5616    -1.6063 H       
  48 H48           -2.4331    -5.9030    -1.9429 H       
  49 H49           -1.6518    -3.6293    -1.8968 H       
  50 H50           -0.2615    -4.4599    -2.6600 H       
  51 H51           -2.4895    -7.4414     0.5006 H       
@<TRIPOS>BOND
   1    1    2 1
   2    1    8 2
   3    1    9 am
   4    2    3 ar
   5    2    7 ar
   6    3    4 ar
   7    3   32 1
   8    4    5 ar
   9    4   21 1
  10    5    6 ar
  11    5   26 1
  12    6    7 ar
  13    7   33 1
  14    9   10 1
  15    9   34 1
  16   10   11 ar
  17   10   15 ar
  18   11   12 ar
  19   11   35 1
  20   12   13 ar
  21   12   36 1
  22   13   14 ar
  23   13   16 1
  24   14   15 ar
  25   14   37 1
  26   15   38 1
  27   16   17 1
  28   17   18 1
  29   17   19 1
  30   17   20 1
  31   21   22 2
  32   21   39 1
  33   22   23 1
  34   22   40 1
  35   23   24 1
  36   23   25 2
  37   24   41 1
  38   24   42 1
  39   24   43 1
  40   26   27 1
  41   26   30 1
  42   27   28 1
  43   27   44 1
  44   27   45 1
  45   28   29 1
  46   28   31 1
  47   28   46 1
  48   29   30 1
  49   29   47 1
  50   29   48 1
  51   30   49 1
  52   30   50 1
  53   31   51 1

#	End of record

