#	Name: ASD03330251
#	Creating user name:	WinNT
#	Creation time:	15. 06. 2019 20:36

#	Modifying user name:	WinNT
#	Modification time:	15. 06. 2019 20:36

#	Program:	/corina/corina34_cracker 3.40 0067  02.08.2006

@<TRIPOS>MOLECULE
ASD03330251
  58   62    0    0    0
SMALL
NO_CHARGES


@<TRIPOS>ATOM
   1 C1             0.1293     2.9797    -1.6238 C.3     
   2 N2            -0.1416     1.5471    -1.4385 N.3     
   3 C3             0.4105     0.7528    -2.5507 C.3     
   4 C4             1.8455     1.1669    -2.7516 C.2     
   5 N5             2.3827     2.3014    -2.2312 N.pl3   
   6 C6             1.6242     3.2565    -1.4184 C.3     
   7 C7             2.8275     0.5375    -3.4440 C.2     
   8 N8             3.9488     1.2868    -3.3386 N.2     
   9 C9             3.6870     2.3485    -2.6094 C.2     
  10 C10            4.6504     3.4154    -2.2592 C.ar    
  11 C11            5.8584     3.5224    -2.9488 C.ar    
  12 C12            2.6965    -0.7332    -4.1786 C.2     
  13 O13            1.6294    -1.3163    -4.1996 O.2     
  14 C14            3.6290    -2.5126    -5.5575 C.3     
  15 N15            3.7593    -1.2493    -4.8272 N.am    
  16 C16            6.7524     4.5198    -2.6178 C.ar    
  17 C17            6.4529     5.4128    -1.6045 C.ar    
  18 C18            5.2566     5.3121    -0.9169 C.ar    
  19 C19            4.3520     4.3223    -1.2419 C.ar    
  20 C20            3.6560    -2.2567    -7.0954 C.3     
  21 C21            4.2292    -3.6253    -7.6072 C.3     
  22 C22            4.8531    -3.4180    -5.2905 C.3     
  23 C23            2.3363    -1.8002    -7.7207 C.3     
  24 C24            5.5044    -3.6240    -6.6922 C.3     
  25 C25            5.8339    -2.7235    -4.3435 C.3     
  26 C26            4.4069    -4.7592    -4.7047 C.3     
  27 C27            6.1130    -2.2332    -7.0480 C.3     
  28 C28            4.8889    -1.3277    -7.3150 C.3     
  29 H29           -0.1586     3.2753    -2.6327 H       
  30 H30           -0.4485     3.5544    -0.9000 H       
  31 H31            0.2145     1.2236    -0.5515 H       
  32 H32            0.3641    -0.3080    -2.3044 H       
  33 H33           -0.1594     0.9459    -3.4597 H       
  34 H34            1.8566     4.2737    -1.7337 H       
  35 H35            1.8806     3.1293    -0.3666 H       
  36 H36            6.0935     2.8256    -3.7398 H       
  37 H37            2.7082    -3.0218    -5.2731 H       
  38 H38            4.6104    -0.7843    -4.8105 H       
  39 H39            7.6881     4.6035    -3.1506 H       
  40 H40            7.1561     6.1917    -1.3489 H       
  41 H41            5.0286     6.0123    -0.1268 H       
  42 H42            3.4184     4.2447    -0.7044 H       
  43 H43            3.5636    -4.4579    -7.3796 H       
  44 H44            4.4857    -3.5907    -8.6660 H       
  45 H45            2.0225    -0.8622    -7.2626 H       
  46 H46            2.4735    -1.6533    -8.7920 H       
  47 H47            1.5728    -2.5598    -7.5529 H       
  48 H48            6.1736    -4.4779    -6.7974 H       
  49 H49            5.3866    -2.6422    -3.3529 H       
  50 H50            6.7527    -3.3065    -4.2806 H       
  51 H51            6.0610    -1.7271    -4.7225 H       
  52 H52            3.7419    -5.2598    -5.4085 H       
  53 H53            5.2806    -5.3849    -4.5226 H       
  54 H54            3.8802    -4.5884    -3.7658 H       
  55 H55            6.6953    -1.8478    -6.2110 H       
  56 H56            6.7330    -2.3070    -7.9414 H       
  57 H57            4.9072    -0.9564    -8.3397 H       
  58 H58            4.8694    -0.4972    -6.6093 H       
@<TRIPOS>BOND
   1    1    2 1
   2    1    6 1
   3    1   29 1
   4    1   30 1
   5    2    3 1
   6    2   31 1
   7    3    4 1
   8    3   32 1
   9    3   33 1
  10    4    5 1
  11    4    7 2
  12    5    6 1
  13    5    9 1
  14    6   34 1
  15    6   35 1
  16    7    8 1
  17    7   12 1
  18    8    9 2
  19    9   10 1
  20   10   11 ar
  21   10   19 ar
  22   11   16 ar
  23   11   36 1
  24   12   13 2
  25   12   15 am
  26   14   15 1
  27   14   20 1
  28   14   22 1
  29   14   37 1
  30   15   38 1
  31   16   17 ar
  32   16   39 1
  33   17   18 ar
  34   17   40 1
  35   18   19 ar
  36   18   41 1
  37   19   42 1
  38   20   21 1
  39   20   23 1
  40   20   28 1
  41   21   24 1
  42   21   43 1
  43   21   44 1
  44   22   25 1
  45   22   26 1
  46   22   24 1
  47   23   45 1
  48   23   46 1
  49   23   47 1
  50   24   27 1
  51   24   48 1
  52   25   49 1
  53   25   50 1
  54   25   51 1
  55   26   52 1
  56   26   53 1
  57   26   54 1
  58   27   28 1
  59   27   55 1
  60   27   56 1
  61   28   57 1
  62   28   58 1

#	End of record

