#	Name: ASD00069383
#	Creating user name:	WinNT
#	Creation time:	15. 06. 2019 18:29

#	Modifying user name:	WinNT
#	Modification time:	15. 06. 2019 18:29

#	Program:	/corina/corina34_cracker 3.40 0067  02.08.2006

@<TRIPOS>MOLECULE
ASD00069383
  51   54    0    0    0
SMALL
NO_CHARGES


@<TRIPOS>ATOM
   1 Cl1           -5.0185    -0.5191     0.6875 Cl      
   2 C2             0.0242     1.2850     0.9023 C.2     
   3 C3             0.0317    -0.0382     0.5183 C.2     
   4 N4             1.3126     1.6889     0.9432 N.pl3   
   5 C5             2.0886     0.6205     0.5876 C.2     
   6 N6             1.3072    -0.4051     0.3365 N.2     
   7 C7            -1.1592    -0.9018     0.3388 C.ar    
   8 N8            -2.3828    -0.4205     0.5512 N.ar    
   9 C9            -1.0172    -2.2339    -0.0619 C.ar    
  10 C10           -2.1591    -2.9980    -0.2151 C.ar    
  11 N11           -3.3413    -2.4486     0.0206 N.ar    
  12 C12           -3.4435    -1.1868     0.3922 C.ar    
  13 C13            3.5607     0.6198     0.5008 C.2     
  14 N14            4.2137    -0.5017     0.1370 N.am    
  15 O15            4.1855     1.6312     0.7574 O.2     
  16 C16            5.6002    -0.4727    -0.0577 C.ar    
  17 C17            6.3321    -1.6594    -0.0501 C.ar    
  18 C18            6.2484     0.7364    -0.2642 C.ar    
  19 C19            7.6170     0.7638    -0.4562 C.ar    
  20 C20            8.3451    -0.4116    -0.4433 C.ar    
  21 C21            7.7066    -1.6234    -0.2437 C.ar    
  22 N22            5.6829    -2.8839     0.1526 N.3     
  23 C23            6.1295    -3.5161     1.4005 C.3     
  24 C24            5.2982    -4.7740     1.6625 C.3     
  25 C25            5.4648    -5.7436     0.4892 C.3     
  26 C26            5.0385    -5.0447    -0.8047 C.3     
  27 C27            5.8773    -3.7789    -0.9953 C.3     
  28 F28            8.4211    -2.7700    -0.2317 F       
  29 N29            5.7594    -5.4176     2.8999 N.3     
  30 C30           -2.0601    -4.4388    -0.6455 C.3     
  31 H31           -0.8456     1.8857     1.1238 H       
  32 H32            1.6293     2.5743     1.1811 H       
  33 H33           -0.0402    -2.6551    -0.2473 H       
  34 H34            3.7233    -1.3289     0.0100 H       
  35 H35            5.6833     1.6567    -0.2753 H       
  36 H36            8.1192     1.7063    -0.6171 H       
  37 H37            9.4142    -0.3845    -0.5942 H       
  38 H38            7.1816    -3.7876     1.3137 H       
  39 H39            6.0018    -2.8176     2.2274 H       
  40 H40            4.2476    -4.5015     1.7631 H       
  41 H41            6.5090    -6.0467     0.4126 H       
  42 H42            4.8405    -6.6223     0.6513 H       
  43 H43            5.1951    -5.7156    -1.6494 H       
  44 H44            3.9838    -4.7764    -0.7430 H       
  45 H45            5.5665    -3.2713    -1.9084 H       
  46 H46            6.9306    -4.0492    -1.0708 H       
  47 H47            5.2253    -6.2513     3.0946 H       
  48 H48            6.7463    -5.6228     2.8547 H       
  49 H49           -1.9744    -5.0759     0.2347 H       
  50 H50           -2.9537    -4.7126    -1.2066 H       
  51 H51           -1.1808    -4.5701    -1.2761 H       
@<TRIPOS>BOND
   1    1   12 1
   2    2    3 2
   3    2    4 1
   4    2   31 1
   5    3    7 1
   6    3    6 1
   7    4    5 1
   8    4   32 1
   9    5    6 2
  10    5   13 1
  11    7    8 ar
  12    7    9 ar
  13    8   12 ar
  14    9   10 ar
  15    9   33 1
  16   10   11 ar
  17   10   30 1
  18   11   12 ar
  19   13   14 am
  20   13   15 2
  21   14   16 1
  22   14   34 1
  23   16   17 ar
  24   16   18 ar
  25   17   22 1
  26   17   21 ar
  27   18   19 ar
  28   18   35 1
  29   19   20 ar
  30   19   36 1
  31   20   21 ar
  32   20   37 1
  33   21   28 1
  34   22   23 1
  35   22   27 1
  36   23   24 1
  37   23   38 1
  38   23   39 1
  39   24   25 1
  40   24   29 1
  41   24   40 1
  42   25   26 1
  43   25   41 1
  44   25   42 1
  45   26   27 1
  46   26   43 1
  47   26   44 1
  48   27   45 1
  49   27   46 1
  50   29   47 1
  51   29   48 1
  52   30   49 1
  53   30   50 1
  54   30   51 1

#	End of record

