#	Name: ASD01880210
#	Creating user name:	WinNT
#	Creation time:	15. 06. 2019 19:40

#	Modifying user name:	WinNT
#	Modification time:	15. 06. 2019 19:40

#	Program:	/corina/corina34_cracker 3.40 0067  02.08.2006

@<TRIPOS>MOLECULE
ASD01880210
  48   50    0    0    0
SMALL
NO_CHARGES


@<TRIPOS>ATOM
   1 N1             0.1814     2.2332     0.5903 N.am    
   2 C2             0.1067     0.7887     0.3577 C.3     
   3 C3             0.0991     0.0667     1.6805 C.ar    
   4 C4            -1.1010    -0.2061     2.3109 C.ar    
   5 C5            -1.1108    -0.8678     3.5235 C.ar    
   6 C6             0.0850    -1.2592     4.1086 C.ar    
   7 C7             1.2879    -0.9846     3.4735 C.ar    
   8 C8             1.2918    -0.3269     2.2588 C.ar    
   9 O9             0.0782    -1.9098     5.3015 O.3     
  10 C10           -1.1071    -2.0425     5.9477 C.2     
  11 C11           -1.6093    -0.9335     6.8360 C.3     
  12 C12           -0.6014    -0.6844     7.9599 C.3     
  13 C13           -1.1112     0.4415     8.8618 C.3     
  14 C14           -1.2811     1.7187     8.0366 C.3     
  15 C15           -2.2889     1.4695     6.9128 C.3     
  16 C16           -1.7791     0.3436     6.0109 C.3     
  17 C17            1.4199     3.0188     0.7014 C.3     
  18 C18            0.9218     4.4574     0.9397 C.3     
  19 O19           -0.5299     4.3328     0.9379 O.3     
  20 C20           -0.8676     3.0551     0.7306 C.2     
  21 C21            1.4138     4.9783     2.2916 C.3     
  22 O22           -2.0202     2.6734     0.6824 O.2     
  23 C23           -1.8192    -3.1408     5.7987 C.2     
  24 H24           -0.8071     0.5554    -0.1888 H       
  25 H25            0.9705     0.4694    -0.2255 H       
  26 H26           -2.0314     0.0987     1.8551 H       
  27 H27           -2.0483    -1.0800     4.0158 H       
  28 H28            2.2200    -1.2878     3.9270 H       
  29 H29            2.2277    -0.1133     1.7640 H       
  30 H30           -2.5695    -1.2189     7.2657 H       
  31 H31           -0.4804    -1.5943     8.5477 H       
  32 H32            0.3588    -0.3991     7.5301 H       
  33 H33           -2.0715     0.1562     9.2915 H       
  34 H34           -0.3932     0.6190     9.6624 H       
  35 H35           -1.6443     2.5207     8.6792 H       
  36 H36           -0.3209     2.0040     7.6069 H       
  37 H37           -3.2492     1.1842     7.3425 H       
  38 H38           -2.4099     2.3794     6.3249 H       
  39 H39           -0.8189     0.6289     5.5811 H       
  40 H40           -2.4971     0.1661     5.2102 H       
  41 H41            2.0167     2.6753     1.5464 H       
  42 H42            1.9944     2.9608    -0.2231 H       
  43 H43            1.2500     5.1138     0.1338 H       
  44 H44            2.5036     4.9739     2.3079 H       
  45 H45            1.0522     5.9954     2.4424 H       
  46 H46            1.0359     4.3365     3.0875 H       
  47 H47           -2.7221    -3.2813     6.3745 H       
  48 H48           -1.5002    -3.9007     5.1007 H       
@<TRIPOS>BOND
   1    1    2 1
   2    1   17 1
   3    1   20 am
   4    2    3 1
   5    2   24 1
   6    2   25 1
   7    3    4 ar
   8    3    8 ar
   9    4    5 ar
  10    4   26 1
  11    5    6 ar
  12    5   27 1
  13    6    7 ar
  14    6    9 1
  15    7    8 ar
  16    7   28 1
  17    8   29 1
  18    9   10 1
  19   10   11 1
  20   10   23 2
  21   11   12 1
  22   11   16 1
  23   11   30 1
  24   12   13 1
  25   12   31 1
  26   12   32 1
  27   13   14 1
  28   13   33 1
  29   13   34 1
  30   14   15 1
  31   14   35 1
  32   14   36 1
  33   15   16 1
  34   15   37 1
  35   15   38 1
  36   16   39 1
  37   16   40 1
  38   17   18 1
  39   17   41 1
  40   17   42 1
  41   18   19 1
  42   18   21 1
  43   18   43 1
  44   19   20 1
  45   20   22 2
  46   21   44 1
  47   21   45 1
  48   21   46 1
  49   23   47 1
  50   23   48 1

#	End of record

