#	Name: ASD01850002
#	Creating user name:	WinNT
#	Creation time:	15. 06. 2019 19:38

#	Modifying user name:	WinNT
#	Modification time:	15. 06. 2019 19:38

#	Program:	/corina/corina34_cracker 3.40 0067  02.08.2006

@<TRIPOS>MOLECULE
ASD01850002
  33   36    0    0    0
SMALL
NO_CHARGES


@<TRIPOS>ATOM
   1 O1             0.0021    -0.0041     0.0020 O.2     
   2 C2            -0.0144     1.2113     0.0087 C.2     
   3 C3             1.1835     2.0780     0.0019 C.ar    
   4 C4             2.5431     1.8004    -0.1359 C.ar    
   5 C5             3.4609     2.8307    -0.1181 C.ar    
   6 C6             3.0378     4.1382     0.0410 C.ar    
   7 C7             1.6911     4.4211     0.1945 C.ar    
   8 C8             0.7670     3.4023     0.1865 C.ar    
   9 C9            -0.7216     3.3487     0.3683 C.3     
  10 N10           -1.1149     1.9628     0.0175 N.am    
  11 C11           -2.5638     2.0890    -0.2278 C.3     
  12 C12           -2.6732     3.4491    -0.9601 C.3     
  13 N13           -1.4513     4.1993    -0.5848 N.3     
  14 C14           -1.0973     3.6734     1.7912 C.ar    
  15 C15           -1.2135     2.6597     2.7238 C.ar    
  16 C16           -1.5582     2.9575     4.0290 C.ar    
  17 C17           -1.7861     4.2690     4.4016 C.ar    
  18 C18           -1.6690     5.2828     3.4691 C.ar    
  19 C19           -1.3201     4.9855     2.1650 C.ar    
  20 H20            2.8774     0.7805    -0.2561 H       
  21 H21            4.5135     2.6155    -0.2285 H       
  22 H22            3.7604     4.9408     0.0460 H       
  23 H23            1.3658     5.4432     0.3209 H       
  24 H24           -2.9194     1.2785    -0.8641 H       
  25 H25           -3.1138     2.1120     0.7130 H       
  26 H26           -2.7027     3.2955    -2.0388 H       
  27 H27           -3.5635     3.9846    -0.6302 H       
  28 H28           -1.6862     5.0863    -0.1651 H       
  29 H29           -1.0354     1.6351     2.4327 H       
  30 H30           -1.6497     2.1655     4.7575 H       
  31 H31           -2.0561     4.5016     5.4211 H       
  32 H32           -1.8474     6.3074     3.7602 H       
  33 H33           -1.2285     5.7775     1.4365 H       
@<TRIPOS>BOND
   1    1    2 2
   2    2    3 1
   3    2   10 am
   4    3    4 ar
   5    3    8 ar
   6    4    5 ar
   7    4   20 1
   8    5    6 ar
   9    5   21 1
  10    6    7 ar
  11    6   22 1
  12    7    8 ar
  13    7   23 1
  14    8    9 1
  15    9   10 1
  16    9   14 1
  17    9   13 1
  18   10   11 1
  19   11   12 1
  20   11   24 1
  21   11   25 1
  22   12   13 1
  23   12   26 1
  24   12   27 1
  25   13   28 1
  26   14   15 ar
  27   14   19 ar
  28   15   16 ar
  29   15   29 1
  30   16   17 ar
  31   16   30 1
  32   17   18 ar
  33   17   31 1
  34   18   19 ar
  35   18   32 1
  36   19   33 1

#	End of record

