#	Name: ASD01884774
#	Creating user name:	WinNT
#	Creation time:	15. 06. 2019 19:48

#	Modifying user name:	WinNT
#	Modification time:	15. 06. 2019 19:48

#	Program:	/corina/corina34_cracker 3.40 0067  02.08.2006

@<TRIPOS>MOLECULE
ASD01884774
  48   51    0    0    0
SMALL
NO_CHARGES


@<TRIPOS>ATOM
   1 O1            -0.0162     1.3431     0.0094 O.3     
   2 C2             0.0021    -0.0041     0.0020 C.2     
   3 O3             1.0623    -0.5971    -0.0113 O.2     
   4 C4            -1.2659    -0.7593     0.0101 C.ar    
   5 C5            -2.4845    -0.0808     0.0196 C.ar    
   6 C6            -3.6742    -0.7997     0.0272 C.ar    
   7 C7            -3.6459    -2.1944     0.0253 C.ar    
   8 C8            -2.4395    -2.8650     0.0163 C.ar    
   9 C9            -1.2497    -2.1590     0.0024 C.ar    
  10 F10           -0.0719    -2.8206    -0.0129 F       
  11 C11           -4.9741    -0.0837     0.0378 C.ar    
  12 C12           -5.0037     1.3098     0.0344 C.ar    
  13 C13           -6.2127     1.9777     0.0442 C.ar    
  14 C14           -7.3982     1.2700     0.0575 C.ar    
  15 C15           -7.3808    -0.1244     0.0611 C.ar    
  16 C16           -6.1657    -0.8023     0.0454 C.ar    
  17 C17           -8.6552    -0.8835     0.0759 C.ar    
  18 N18           -9.8015    -0.2200     0.0802 N.ar    
  19 C19          -10.9613    -0.8715     0.0934 C.ar    
  20 C20          -10.9529    -2.2693     0.1027 C.ar    
  21 C21           -9.7317    -2.9218     0.0978 C.ar    
  22 N22           -8.6176    -2.2093     0.0791 N.ar    
  23 C23           -9.6727    -4.4276     0.1080 C.3     
  24 F24           -9.6648    -4.9029    -1.2078 F       
  25 F25           -8.5079    -4.8442     0.7613 F       
  26 F26          -10.7907    -4.9336     0.7798 F       
  27 C27          -12.2436    -0.1262     0.0987 C.ar    
  28 C28          -12.2562     1.2663    -0.0208 C.ar    
  29 C29          -13.4792     1.9151    -0.0103 C.ar    
  30 C30          -14.6382     1.1718     0.1168 C.ar    
  31 N31          -14.5949    -0.1421     0.2278 N.ar    
  32 C32          -13.4559    -0.8035     0.2171 C.ar    
  33 C33          -15.9718     1.8735     0.1291 C.3     
  34 F34          -16.4560     1.9779    -1.1792 F       
  35 F35          -16.8771     1.1409     0.9044 F       
  36 F36          -15.8203     3.1532     0.6738 F       
  37 H37            0.8393     1.7937     0.0037 H       
  38 H38           -2.5037     0.9990     0.0214 H       
  39 H39           -4.5711    -2.7515     0.0312 H       
  40 H40           -2.4243    -3.9449     0.0156 H       
  41 H41           -4.0794     1.8685     0.0243 H       
  42 H42           -6.2308     3.0575     0.0419 H       
  43 H43           -8.3407     1.7974     0.0656 H       
  44 H44           -6.1474    -1.8822     0.0436 H       
  45 H45          -11.8775    -2.8274     0.1139 H       
  46 H46          -11.3353     1.8221    -0.1184 H       
  47 H47          -13.5274     2.9903    -0.1001 H       
  48 H48          -13.4612    -1.8798     0.3057 H       
@<TRIPOS>BOND
   1    1    2 1
   2    1   37 1
   3    2    3 2
   4    2    4 1
   5    4    9 ar
   6    4    5 ar
   7    5    6 ar
   8    5   38 1
   9    6    7 ar
  10    6   11 1
  11    7    8 ar
  12    7   39 1
  13    8    9 ar
  14    8   40 1
  15    9   10 1
  16   11   16 ar
  17   11   12 ar
  18   12   13 ar
  19   12   41 1
  20   13   14 ar
  21   13   42 1
  22   14   15 ar
  23   14   43 1
  24   15   16 ar
  25   15   17 1
  26   16   44 1
  27   17   22 ar
  28   17   18 ar
  29   18   19 ar
  30   19   20 ar
  31   19   27 1
  32   20   21 ar
  33   20   45 1
  34   21   22 ar
  35   21   23 1
  36   23   24 1
  37   23   25 1
  38   23   26 1
  39   27   32 ar
  40   27   28 ar
  41   28   29 ar
  42   28   46 1
  43   29   30 ar
  44   29   47 1
  45   30   31 ar
  46   30   33 1
  47   31   32 ar
  48   32   48 1
  49   33   34 1
  50   33   35 1
  51   33   36 1

#	End of record

