#	Name: ASD00960214
#	Creating user name:	WinNT
#	Creation time:	15. 06. 2019 18:53

#	Modifying user name:	WinNT
#	Modification time:	15. 06. 2019 18:53

#	Program:	/corina/corina34_cracker 3.40 0067  02.08.2006

@<TRIPOS>MOLECULE
ASD00960214
  32   34    0    0    0
SMALL
NO_CHARGES


@<TRIPOS>ATOM
   1 C1            -0.0168     1.3890     0.0097 C.2     
   2 C2             0.0021    -0.0041     0.0020 C.2     
   3 N3             1.2746     1.8345    -0.0003 N.pl3   
   4 C4             2.1105     0.7448    -0.0141 C.2     
   5 C5             1.3269    -0.4043    -0.0128 C.2     
   6 N6             1.8446     3.1151     0.0008 N.2     
   7 C7             3.1441     3.2525    -0.0113 C.2     
   8 N8             3.9657     2.2069    -0.0251 N.2     
   9 C9             3.5077     0.9666    -0.0262 C.2     
  10 N10            4.3835    -0.1006    -0.0404 N.pl3   
  11 F11            1.7767    -1.6782    -0.0239 F       
  12 C12           -1.1772     2.2045     0.0199 C.2     
  13 O13           -2.2808     1.6921     0.0230 O.2     
  14 O14           -1.0573     3.5487     0.0261 O.3     
  15 C15           -2.2678     4.3079     0.0362 C.3     
  16 C16           -1.9384     5.7785     0.0420 C.ar    
  17 C17           -1.7936     6.4590    -1.1525 C.ar    
  18 C18           -1.4913     7.8079    -1.1472 C.ar    
  19 C19           -1.3344     8.4764     0.0525 C.ar    
  20 C20           -1.4802     7.7960     1.2470 C.ar    
  21 C21           -1.7867     6.4481     1.2418 C.ar    
  22 H22           -0.8606    -0.6538     0.0073 H       
  23 H23            3.5644     4.2473    -0.0103 H       
  24 H24            5.3405     0.0575    -0.0497 H       
  25 H25            4.0418    -1.0084    -0.0411 H       
  26 H26           -2.8533     4.0702    -0.8519 H       
  27 H27           -2.8440     4.0612     0.9280 H       
  28 H28           -1.9162     5.9368    -2.0898 H       
  29 H29           -1.3775     8.3394    -2.0804 H       
  30 H30           -1.0976     9.5301     0.0567 H       
  31 H31           -1.3573     8.3182     2.1844 H       
  32 H32           -1.9042     5.9174     2.1750 H       
@<TRIPOS>BOND
   1    1    2 2
   2    1    3 1
   3    1   12 1
   4    2    5 1
   5    2   22 1
   6    3    4 1
   7    3    6 1
   8    4    5 2
   9    4    9 1
  10    5   11 1
  11    6    7 2
  12    7    8 1
  13    7   23 1
  14    8    9 2
  15    9   10 1
  16   10   24 1
  17   10   25 1
  18   12   13 2
  19   12   14 1
  20   14   15 1
  21   15   16 1
  22   15   26 1
  23   15   27 1
  24   16   17 ar
  25   16   21 ar
  26   17   18 ar
  27   17   28 1
  28   18   19 ar
  29   18   29 1
  30   19   20 ar
  31   19   30 1
  32   20   21 ar
  33   20   31 1
  34   21   32 1

#	End of record

