#	Name: ASD01420690
#	Creating user name:	WinNT
#	Creation time:	15. 06. 2019 19:20

#	Modifying user name:	WinNT
#	Modification time:	15. 06. 2019 19:20

#	Program:	/corina/corina34_cracker 3.40 0067  02.08.2006

@<TRIPOS>MOLECULE
ASD01420690
  39   41    0    0    0
SMALL
NO_CHARGES


@<TRIPOS>ATOM
   1 N1            -0.0495     1.4122    -0.2181 N.am    
   2 N2            -0.0039     0.0129    -0.1079 N.2     
   3 C3             1.2615    -0.3302    -0.1014 C.2     
   4 N4             2.0172     0.7706    -0.2012 N.2     
   5 C5             1.2463     1.8335    -0.2728 C.2     
   6 N6             1.7435    -1.6340    -0.0056 N.pl3   
   7 N7             1.6723     3.1409    -0.3835 N.pl3   
   8 C8            -1.1534     2.1839    -0.2661 C.2     
   9 C9            -2.4876     1.5596    -0.3136 C.ar    
  10 C10           -3.2151     1.3625     0.8659 C.ar    
  11 C11           -4.4656     0.7766     0.8118 C.ar    
  12 C12           -4.9984     0.3850    -0.4031 C.ar    
  13 C13           -4.2867     0.5759    -1.5737 C.ar    
  14 C14           -3.0372     1.1654    -1.5393 C.ar    
  15 O15           -1.0487     3.3948    -0.2702 O.2     
  16 F16           -2.3461     1.3560    -2.6844 F       
  17 F17           -2.6962     1.7434     2.0537 F       
  18 C18            3.1139    -1.8825    -0.1204 C.ar    
  19 C19            3.6855    -2.9556     0.5516 C.ar    
  20 C20            5.0401    -3.1983     0.4359 C.ar    
  21 C21            5.8273    -2.3745    -0.3477 C.ar    
  22 C22            5.2616    -1.3051    -1.0176 C.ar    
  23 C23            3.9066    -1.0604    -0.9113 C.ar    
  24 S24            7.5552    -2.6878    -0.4924 S.o2    
  25 O25            8.1581    -1.4526    -0.8529 O.2     
  26 O26            7.9273    -3.4263     0.6631 O.2     
  27 N27            7.7627    -3.7038    -1.7836 N.am    
  28 H28            1.1279    -2.3692     0.1409 H       
  29 H29            1.0232     3.8602    -0.4298 H       
  30 H30            2.6209     3.3409    -0.4149 H       
  31 H31           -5.0284     0.6237     1.7208 H       
  32 H32           -5.9759    -0.0728    -0.4379 H       
  33 H33           -4.7103     0.2667    -2.5178 H       
  34 H34            3.0714    -3.5991     1.1640 H       
  35 H35            5.4852    -4.0322     0.9584 H       
  36 H36            5.8793    -0.6635    -1.6285 H       
  37 H37            3.4645    -0.2282    -1.4389 H       
  38 H38            8.5809    -3.6668    -2.3033 H       
  39 H39            7.0660    -4.3359    -2.0202 H       
@<TRIPOS>BOND
   1    1    2 1
   2    1    5 1
   3    1    8 am
   4    2    3 2
   5    3    4 1
   6    3    6 1
   7    4    5 2
   8    5    7 1
   9    6   18 1
  10    6   28 1
  11    7   29 1
  12    7   30 1
  13    8    9 1
  14    8   15 2
  15    9   10 ar
  16    9   14 ar
  17   10   11 ar
  18   10   17 1
  19   11   12 ar
  20   11   31 1
  21   12   13 ar
  22   12   32 1
  23   13   14 ar
  24   13   33 1
  25   14   16 1
  26   18   19 ar
  27   18   23 ar
  28   19   20 ar
  29   19   34 1
  30   20   21 ar
  31   20   35 1
  32   21   22 ar
  33   21   24 1
  34   22   23 ar
  35   22   36 1
  36   23   37 1
  37   24   25 2
  38   24   26 2
  39   24   27 am
  40   27   38 1
  41   27   39 1

#	End of record

