#	Name: ASD02198180
#	Creating user name:	WinNT
#	Creation time:	15. 06. 2019 20:18

#	Modifying user name:	WinNT
#	Modification time:	15. 06. 2019 20:18

#	Program:	/corina/corina34_cracker 3.40 0067  02.08.2006

@<TRIPOS>MOLECULE
ASD02198180
  45   47    0    0    0
SMALL
NO_CHARGES


@<TRIPOS>ATOM
   1 C1            -0.0156     1.3781    -0.0262 C.2     
   2 C2             0.0072    -0.0011    -0.0112 C.2     
   3 C3            -1.1787    -0.8006     0.0597 C.1     
   4 S4             1.5646     2.0119    -0.1162 S.3     
   5 C5             2.2781     0.4072    -0.1346 C.2     
   6 C6             1.2874    -0.5460    -0.0716 C.2     
   7 C7             3.6581     0.1362    -0.2035 C.2     
   8 C8             4.6262     1.2484    -0.2666 C.2     
   9 O9             4.0535    -1.0179    -0.2110 O.2     
  10 N10            1.5381    -1.9089    -0.0687 N.pl3   
  11 N11           -1.1600     2.1397     0.0194 N.pl3   
  12 N12           -2.1195    -1.4348     0.1160 N.1     
  13 O13            4.3443     2.5643    -0.2663 O.3     
  14 C14           -1.0702     3.5297     0.1320 C.ar    
  15 C15           -1.9780     4.3418    -0.5371 C.ar    
  16 N16            5.3467     3.2371    -0.3263 N.2     
  17 C17            6.4272     2.4974    -0.3749 C.2     
  18 C18            5.9886     1.1468    -0.3309 C.2     
  19 C19            7.8284     2.9748    -0.4541 C.2     
  20 O20            8.0891     4.2955    -0.4823 O.3     
  21 O21            8.7409     2.1749    -0.4936 O.2     
  22 C22            9.4842     4.6905    -0.5603 C.3     
  23 C23            9.5815     6.2172    -0.5822 C.3     
  24 C24           -1.8905     5.7165    -0.4261 C.ar    
  25 C25           -0.9008     6.2883     0.3493 C.ar    
  26 C26            0.0109     5.4817     1.0215 C.ar    
  27 C27           -0.0779     4.1004     0.9167 C.ar    
  28 S28            1.2731     6.2120     2.0106 S.3     
  29 C29            0.9590     7.9891     1.8264 C.3     
  30 H30            2.4508    -2.2342    -0.1126 H       
  31 H31            0.8008    -2.5375    -0.0228 H       
  32 H32           -2.0294     1.7120    -0.0266 H       
  33 H33           -2.7527     3.8981    -1.1448 H       
  34 H34            6.5897     0.2498    -0.3508 H       
  35 H35           10.0201     4.3046     0.3068 H       
  36 H36            9.9262     4.2852    -1.4705 H       
  37 H37           10.6287     6.5137    -0.6408 H       
  38 H38            9.0456     6.6031    -1.4494 H       
  39 H39            9.1395     6.6225     0.3280 H       
  40 H40           -2.5973     6.3451    -0.9471 H       
  41 H41           -0.8348     7.3630     0.4333 H       
  42 H42            0.6289     3.4715     1.4376 H       
  43 H43            1.6926     8.5497     2.4056 H       
  44 H44            1.0384     8.2650     0.7749 H       
  45 H45           -0.0430     8.2203     2.1880 H       
@<TRIPOS>BOND
   1    1    2 2
   2    1    4 1
   3    1   11 1
   4    2    3 1
   5    2    6 1
   6    3   12 3
   7    4    5 1
   8    5    6 2
   9    5    7 1
  10    6   10 1
  11    7    8 1
  12    7    9 2
  13    8   13 1
  14    8   18 2
  15   10   30 1
  16   10   31 1
  17   11   14 1
  18   11   32 1
  19   13   16 1
  20   14   15 ar
  21   14   27 ar
  22   15   24 ar
  23   15   33 1
  24   16   17 2
  25   17   18 1
  26   17   19 1
  27   18   34 1
  28   19   20 1
  29   19   21 2
  30   20   22 1
  31   22   23 1
  32   22   35 1
  33   22   36 1
  34   23   37 1
  35   23   38 1
  36   23   39 1
  37   24   25 ar
  38   24   40 1
  39   25   26 ar
  40   25   41 1
  41   26   27 ar
  42   26   28 1
  43   27   42 1
  44   28   29 1
  45   29   43 1
  46   29   44 1
  47   29   45 1

#	End of record

