#	Name: ASD03730033
#	Creating user name:	WinNT
#	Creation time:	15. 06. 2019 20:43

#	Modifying user name:	WinNT
#	Modification time:	15. 06. 2019 20:43

#	Program:	/corina/corina34_cracker 3.40 0067  02.08.2006

@<TRIPOS>MOLECULE
ASD03730033
  29   32    0    0    0
SMALL
NO_CHARGES


@<TRIPOS>ATOM
   1 O1            -0.0175     1.4361     0.0099 O.3     
   2 C2             0.0021    -0.0041     0.0020 C.3     
   3 C3             1.3458    -0.3163    -0.6709 C.3     
   4 C4             2.1586     0.9230    -0.4088 C.ar    
   5 C5             1.2616     1.9063     0.0003 C.ar    
   6 C6             1.7496     3.1681     0.3268 C.ar    
   7 C7             3.0992     3.4388     0.2357 C.ar    
   8 C8             3.9807     2.4576    -0.1807 C.ar    
   9 C9             3.5051     1.1980    -0.5019 C.ar    
  10 N10            2.1587    -2.4046    -1.1216 N.am    
  11 C11            1.9847    -1.5477    -0.0958 C.2     
  12 C12            1.1882    -0.5972    -2.1357 C.ar    
  13 C13            0.6779     0.1223    -3.1933 C.ar    
  14 C14            0.6716    -0.4240    -4.4643 C.ar    
  15 C15            1.1787    -1.6941    -4.6704 C.ar    
  16 C16            1.6904    -2.4190    -3.6144 C.ar    
  17 C17            1.7015    -1.8768    -2.3315 C.ar    
  18 O18            2.2855    -1.7344     1.0643 O.2     
  19 Br19           5.8290     2.8358    -0.3112 Br      
  20 H20           -0.0220    -0.3969     1.0185 H       
  21 H21           -0.8262    -0.3990    -0.5863 H       
  22 H22            1.0679     3.9397     0.6528 H       
  23 H23            3.4691     4.4211     0.4903 H       
  24 H24            4.1910     0.4295    -0.8264 H       
  25 H25            2.5551    -3.2852    -1.0303 H       
  26 H26            0.2820     1.1139    -3.0303 H       
  27 H27            0.2712     0.1400    -5.2938 H       
  28 H28            1.1736    -2.1205    -5.6627 H       
  29 H29            2.0842    -3.4104    -3.7830 H       
@<TRIPOS>BOND
   1    1    2 1
   2    1    5 1
   3    2    3 1
   4    2   20 1
   5    2   21 1
   6    3    4 1
   7    3   11 1
   8    3   12 1
   9    4    5 ar
  10    4    9 ar
  11    5    6 ar
  12    6    7 ar
  13    6   22 1
  14    7    8 ar
  15    7   23 1
  16    8    9 ar
  17    8   19 1
  18    9   24 1
  19   10   11 am
  20   10   17 1
  21   10   25 1
  22   11   18 2
  23   12   13 ar
  24   12   17 ar
  25   13   14 ar
  26   13   26 1
  27   14   15 ar
  28   14   27 1
  29   15   16 ar
  30   15   28 1
  31   16   17 ar
  32   16   29 1

#	End of record

