#	Name: ASD03170004
#	Creating user name:	WinNT
#	Creation time:	15. 06. 2019 20:33

#	Modifying user name:	WinNT
#	Modification time:	15. 06. 2019 20:33

#	Program:	/corina/corina34_cracker 3.40 0067  02.08.2006

@<TRIPOS>MOLECULE
ASD03170004
  44   46    0    0    0
SMALL
NO_CHARGES


@<TRIPOS>ATOM
   1 O1             2.5191    -2.3818     1.9170 O.3     
   2 C2             1.4702    -2.0319     1.1268 C.ar    
   3 C3             0.5172    -1.1382     1.5927 C.ar    
   4 C4            -0.5482    -0.7841     0.7874 C.ar    
   5 C5            -0.6648    -1.3196    -0.4817 C.ar    
   6 C6             0.2837    -2.2112    -0.9484 C.ar    
   7 C7             1.3540    -2.5636    -0.1495 C.ar    
   8 C8             0.1532    -2.7935    -2.3322 C.3     
   9 C9             1.3234    -2.3219    -3.1978 C.3     
  10 C10           -1.1654    -2.3323    -2.9591 C.3     
  11 C11           -1.3208    -2.9753    -4.3392 C.3     
  12 N12           -1.3075    -4.4374    -4.2037 N.3     
  13 C13           -0.0323    -4.9075    -3.6476 C.3     
  14 C14            0.1632    -4.3223    -2.2471 C.3     
  15 C15           -0.9735    -4.7886    -1.3353 C.3     
  16 C16           -1.5927    -5.0879    -5.4896 C.3     
  17 C17           -0.4699    -4.8070    -6.4546 C.2     
  18 C18            0.6332    -5.5591    -6.6185 C.2     
  19 C19            1.4120    -4.9317    -7.6178 C.2     
  20 C20            0.7382    -3.8337    -8.0049 C.2     
  21 O21           -0.4036    -3.7664    -7.3011 O.3     
  22 H22            2.3520    -3.1554     2.4726 H       
  23 H23            0.6077    -0.7198     2.5843 H       
  24 H24           -1.2907    -0.0885     1.1498 H       
  25 H25           -1.4983    -1.0416    -1.1097 H       
  26 H26            2.0947    -3.2596    -0.5146 H       
  27 H27            2.2615    -2.6526    -2.7519 H       
  28 H28            1.2282    -2.7436    -4.1984 H       
  29 H29            1.3142    -1.2337    -3.2596 H       
  30 H30           -1.9965    -2.6338    -2.3215 H       
  31 H31           -1.1597    -1.2472    -3.0618 H       
  32 H32           -2.2655    -2.6602    -4.7823 H       
  33 H33           -0.4968    -2.6624    -4.9805 H       
  34 H34           -0.0411    -5.9959    -3.5884 H       
  35 H35            0.7857    -4.5856    -4.2921 H       
  36 H36            1.1172    -4.6594    -1.8417 H       
  37 H37           -0.9250    -5.8713    -1.2190 H       
  38 H38           -0.8747    -4.3135    -0.3593 H       
  39 H39           -1.9307    -4.5133    -1.7782 H       
  40 H40           -1.6830    -6.1638    -5.3403 H       
  41 H41           -2.5264    -4.6977    -5.8949 H       
  42 H42            0.8774    -6.4675    -6.0880 H       
  43 H43            2.3652    -5.2690    -7.9974 H       
  44 H44            1.0591    -3.1281    -8.7570 H       
@<TRIPOS>BOND
   1    1    2 1
   2    1   22 1
   3    2    3 ar
   4    2    7 ar
   5    3    4 ar
   6    3   23 1
   7    4    5 ar
   8    4   24 1
   9    5    6 ar
  10    5   25 1
  11    6    7 ar
  12    6    8 1
  13    7   26 1
  14    8    9 1
  15    8   10 1
  16    8   14 1
  17    9   27 1
  18    9   28 1
  19    9   29 1
  20   10   11 1
  21   10   30 1
  22   10   31 1
  23   11   12 1
  24   11   32 1
  25   11   33 1
  26   12   13 1
  27   12   16 1
  28   13   14 1
  29   13   34 1
  30   13   35 1
  31   14   15 1
  32   14   36 1
  33   15   37 1
  34   15   38 1
  35   15   39 1
  36   16   17 1
  37   16   40 1
  38   16   41 1
  39   17   18 2
  40   17   21 1
  41   18   19 1
  42   18   42 1
  43   19   20 2
  44   19   43 1
  45   20   21 1
  46   20   44 1

#	End of record

