#	Name: ASD01411602
#	Creating user name:	WinNT
#	Creation time:	15. 06. 2019 19:19

#	Modifying user name:	WinNT
#	Modification time:	15. 06. 2019 19:19

#	Program:	/corina/corina34_cracker 3.40 0067  02.08.2006

@<TRIPOS>MOLECULE
ASD01411602
  37   37    0    0    0
SMALL
NO_CHARGES


@<TRIPOS>ATOM
   1 C1            -0.0167     1.3772     0.0096 C.ar    
   2 C2             0.0021    -0.0041     0.0020 C.ar    
   3 C3             1.1705     2.0859     0.0021 C.ar    
   4 C4             2.3791     1.4145    -0.0130 C.ar    
   5 C5             2.4032     0.0333    -0.0211 C.ar    
   6 C6             1.2134    -0.6801    -0.0132 C.ar    
   7 O7             1.2345    -2.0389    -0.0206 O.3     
   8 P8             1.2592    -2.7015     1.4465 P.3     
   9 O9             1.0191    -4.2887     1.3226 O.3     
  10 N10            2.7532    -2.4147     2.1665 N.3     
  11 O11            0.1890    -2.1039     2.2758 O.2     
  12 C12            0.6770    -5.1135     2.4383 C.3     
  13 C13            3.8420    -2.9950     1.3692 C.3     
  14 C14            4.1860    -4.3841     1.9104 C.3     
  15 C15            5.0565    -2.1071     1.4560 C.2     
  16 O16            5.0190    -1.0948     2.1145 O.2     
  17 O17            6.1800    -2.4409     0.8018 O.3     
  18 C18            7.3106    -1.5389     0.9306 C.3     
  19 C19            8.4905    -2.0812     0.1216 C.3     
  20 H20           -0.9595     1.9040     0.0169 H       
  21 H21           -0.9255    -0.5572     0.0082 H       
  22 H22            1.1538     3.1658     0.0077 H       
  23 H23            3.3051     1.9704    -0.0189 H       
  24 H24            3.3475    -0.4907    -0.0337 H       
  25 H25            2.8997    -1.4274     2.3143 H       
  26 H26            0.5670    -6.1460     2.1066 H       
  27 H27            1.4653    -5.0549     3.1887 H       
  28 H28           -0.2624    -4.7687     2.8705 H       
  29 H29            3.5263    -3.0781     0.3292 H       
  30 H30            4.9939    -4.8147     1.3187 H       
  31 H31            4.5017    -4.3010     2.9503 H       
  32 H32            3.3075    -5.0263     1.8476 H       
  33 H33            7.0342    -0.5539     0.5544 H       
  34 H34            7.5950    -1.4604     1.9799 H       
  35 H35            8.7668    -3.0662     0.4978 H       
  36 H36            8.2061    -2.1597    -0.9277 H       
  37 H37            9.3392    -1.4041     0.2183 H       
@<TRIPOS>BOND
   1    1    2 ar
   2    1    3 ar
   3    1   20 1
   4    2    6 ar
   5    2   21 1
   6    3    4 ar
   7    3   22 1
   8    4    5 ar
   9    4   23 1
  10    5    6 ar
  11    5   24 1
  12    6    7 1
  13    7    8 1
  14    8    9 1
  15    8   10 1
  16    8   11 2
  17    9   12 1
  18   10   13 1
  19   10   25 1
  20   12   26 1
  21   12   27 1
  22   12   28 1
  23   13   14 1
  24   13   15 1
  25   13   29 1
  26   14   30 1
  27   14   31 1
  28   14   32 1
  29   15   16 2
  30   15   17 1
  31   17   18 1
  32   18   19 1
  33   18   33 1
  34   18   34 1
  35   19   35 1
  36   19   36 1
  37   19   37 1

#	End of record

