#	Name: ASD03740281
#	Creating user name:	WinNT
#	Creation time:	15. 06. 2019 20:47

#	Modifying user name:	WinNT
#	Modification time:	15. 06. 2019 20:47

#	Program:	/corina/corina34_cracker 3.40 0067  02.08.2006

@<TRIPOS>MOLECULE
ASD03740281
  70   75    0    0    0
SMALL
NO_CHARGES


@<TRIPOS>ATOM
   1 N1            -0.4829     1.6483     0.6972 N.3     
   2 N2             1.8902     0.1886     0.7490 N.am    
   3 S3             3.0738    -0.8590     0.2551 S.o2    
   4 C4             2.6568    -1.3867    -1.3735 C.ar    
   5 O5             4.2642    -0.0922     0.1360 O.2     
   6 O6             2.9680    -2.0055     1.0879 O.2     
   7 C7             2.9410    -0.5763    -2.4566 C.ar    
   8 C8             2.6139    -0.9903    -3.7343 C.ar    
   9 C9             2.0029    -2.2149    -3.9288 C.ar    
  10 C10            1.7196    -3.0258    -2.8457 C.ar    
  11 C11            2.0507    -2.6137    -1.5685 C.ar    
  12 C12            0.7549    -0.2818     1.5572 C.3     
  13 C13           -0.5432     0.1941     0.8966 C.3     
  14 C14            0.6015     2.0155    -0.2232 C.3     
  15 C15            1.9466     1.6142     0.3916 C.3     
  16 C16            0.7682    -1.7874     1.6208 C.2     
  17 O17            0.6844    -2.4382     0.6008 O.2     
  18 N18            0.8732    -2.4107     2.8112 N.am    
  19 C19            0.8861    -3.8743     2.8730 C.3     
  20 C20            1.0111    -4.3154     4.3086 C.ar    
  21 C21           -0.1251    -4.5235     5.0677 C.ar    
  22 C22           -0.0142    -4.9285     6.3846 C.ar    
  23 C23            1.2381    -5.1263     6.9451 C.ar    
  24 C24            2.3794    -4.9168     6.1808 C.ar    
  25 C25            2.2623    -4.5167     4.8622 C.ar    
  26 C26           -1.6921     2.1363     0.2548 C.2     
  27 S27           -2.0253     3.8267    -0.1002 S.3     
  28 N28           -2.7443     1.4166     0.0352 N.2     
  29 C29           -3.8467     2.0325    -0.3938 C.ar    
  30 C30           -3.6775     3.4170    -0.5447 C.ar    
  31 C31           -4.7443     4.1878    -0.9867 C.ar    
  32 N32           -5.8976     3.5943    -1.2510 N.ar    
  33 C33           -6.0364     2.2904    -1.0984 C.ar    
  34 N34           -5.0576     1.5188    -0.6921 N.ar    
  35 O35            1.3493    -5.5243     8.2404 O.3     
  36 C36            0.1337    -5.7198     8.9657 C.3     
  37 C37            1.6453    -2.6659    -5.3216 C.3     
  38 C38           -7.3701     1.6628    -1.4123 C.3     
  39 C39           -8.5830     2.1445    -0.6137 C.3     
  40 C40           -8.4258     2.5449    -2.0819 C.3     
  41 F41           -0.6327    -6.7052     8.3342 F       
  42 F42            0.4298    -6.1250    10.2716 F       
  43 F43           -0.5861    -4.5208     9.0013 F       
  44 F44            2.7176    -3.3766    -5.8714 F       
  45 F45            0.5168    -3.4910    -5.2693 F       
  46 F46            1.3697    -1.5486    -6.1172 F       
  47 F47            3.6016    -5.1083     6.7237 F       
  48 H48            3.4183     0.3805    -2.3047 H       
  49 H49            2.8352    -0.3568    -4.5805 H       
  50 H50            1.2419    -3.9825    -2.9977 H       
  51 H51            1.8327    -3.2488    -0.7226 H       
  52 H52            0.8262     0.1307     2.5637 H       
  53 H53           -1.3891    -0.0501     1.5391 H       
  54 H54           -0.6634    -0.3005    -0.0673 H       
  55 H55            0.4654     1.4955    -1.1715 H       
  56 H56            0.5858     3.0921    -0.3927 H       
  57 H57            2.1324     2.2089     1.2860 H       
  58 H58            2.7440     1.7787    -0.3331 H       
  59 H59            0.9402    -1.8902     3.6269 H       
  60 H60           -0.0411    -4.2639     2.4526 H       
  61 H61            1.7324    -4.2547     2.3010 H       
  62 H62           -1.1009    -4.3690     4.6313 H       
  63 H63           -0.9028    -5.0903     6.9767 H       
  64 H64            3.1485    -4.3578     4.2657 H       
  65 H65           -4.6350     5.2549    -1.1125 H       
  66 H66           -7.3396     0.6107    -1.6956 H       
  67 H67           -9.3506     1.4093    -0.3719 H       
  68 H68           -8.4163     2.9152     0.1388 H       
  69 H69           -8.1557     3.5791    -2.2954 H       
  70 H70           -9.0900     2.0732    -2.8061 H       
@<TRIPOS>BOND
   1    1   13 1
   2    1   14 1
   3    1   26 1
   4    2    3 am
   5    2   12 1
   6    2   15 1
   7    3    4 1
   8    3    5 2
   9    3    6 2
  10    4    7 ar
  11    4   11 ar
  12    7    8 ar
  13    7   48 1
  14    8    9 ar
  15    8   49 1
  16    9   10 ar
  17    9   37 1
  18   10   11 ar
  19   10   50 1
  20   11   51 1
  21   12   13 1
  22   12   16 1
  23   12   52 1
  24   13   53 1
  25   13   54 1
  26   14   15 1
  27   14   55 1
  28   14   56 1
  29   15   57 1
  30   15   58 1
  31   16   17 2
  32   16   18 am
  33   18   19 1
  34   18   59 1
  35   19   20 1
  36   19   60 1
  37   19   61 1
  38   20   21 ar
  39   20   25 ar
  40   21   22 ar
  41   21   62 1
  42   22   23 ar
  43   22   63 1
  44   23   24 ar
  45   23   35 1
  46   24   25 ar
  47   24   47 1
  48   25   64 1
  49   26   27 1
  50   26   28 2
  51   27   30 1
  52   28   29 1
  53   29   30 ar
  54   29   34 ar
  55   30   31 ar
  56   31   32 ar
  57   31   65 1
  58   32   33 ar
  59   33   34 ar
  60   33   38 1
  61   35   36 1
  62   36   41 1
  63   36   42 1
  64   36   43 1
  65   37   44 1
  66   37   45 1
  67   37   46 1
  68   38   39 1
  69   38   40 1
  70   38   66 1
  71   39   40 1
  72   39   67 1
  73   39   68 1
  74   40   69 1
  75   40   70 1

#	End of record

