#	Name: ASD02030298
#	Creating user name:	WinNT
#	Creation time:	15. 06. 2019 20:15

#	Modifying user name:	WinNT
#	Modification time:	15. 06. 2019 20:15

#	Program:	/corina/corina34_cracker 3.40 0067  02.08.2006

@<TRIPOS>MOLECULE
ASD02030298
  59   62    0    0    0
SMALL
NO_CHARGES


@<TRIPOS>ATOM
   1 N1            -0.3631     1.4633    -0.3809 N.am    
   2 C2            -0.3770    -0.0057    -0.3398 C.3     
   3 C3            -1.1618    -0.4539     0.8993 C.3     
   4 N4            -2.4417     0.2677     0.9310 N.am    
   5 C5            -2.4278     1.7367     0.8898 C.3     
   6 C6            -1.6428     2.1850    -0.3437 C.3     
   7 C7             0.8025     2.1366    -0.4460 C.2     
   8 C8             2.0844     1.4057    -0.3569 C.2     
   9 N9             3.2814     1.9478    -0.2916 N.2     
  10 N10            2.2323     0.0686    -0.3225 N.2     
  11 C11            3.5148    -0.1790    -0.2419 C.2     
  12 N12            4.1584     1.0063    -0.2235 N.pl3   
  13 C13            5.5463     1.1837    -0.1446 C.ar    
  14 O14            0.7998     3.3451    -0.5779 O.2     
  15 C15           -3.6074    -0.4057     0.9960 C.2     
  16 C16           -3.6116    -1.8833     0.9414 C.ar    
  17 O17           -4.6552     0.2016     1.0997 O.2     
  18 C18            6.0844     2.4634    -0.1339 C.ar    
  19 C19            7.4529     2.6351    -0.0561 C.ar    
  20 C20            8.2864     1.5340     0.0111 C.ar    
  21 C21            7.7534     0.2579     0.0002 C.ar    
  22 C22            6.3858     0.0799    -0.0712 C.ar    
  23 C23           -1.3827     3.6908    -0.2675 C.3     
  24 C24           -2.7179    -2.6154     1.7237 C.ar    
  25 C25            8.0379     4.0239    -0.0450 C.3     
  26 C26           -4.5135    -2.5508     0.1114 C.ar    
  27 C27           -4.5151    -3.9300     0.0632 C.ar    
  28 C28           -3.6258    -4.6540     0.8353 C.ar    
  29 C29           -2.7281    -3.9988     1.6677 C.ar    
  30 C30           -3.6342    -6.1598     0.7773 C.3     
  31 C31           -0.9607    -3.9767     3.2578 C.3     
  32 O32           -1.8560    -4.7156     2.4245 O.3     
  33 H33           -0.8591    -0.3923    -1.2377 H       
  34 H34            0.6451    -0.3797    -0.2805 H       
  35 H35           -1.3478    -1.5266     0.8463 H       
  36 H36           -0.5896    -0.2233     1.7979 H       
  37 H37           -3.4499     2.1107     0.8305 H       
  38 H38           -1.9457     2.1232     1.7877 H       
  39 H39           -2.2129     1.9548    -1.2437 H       
  40 H40            3.9744    -1.1552    -0.1960 H       
  41 H41            5.4339     3.3239    -0.1867 H       
  42 H42            9.3560     1.6708     0.0718 H       
  43 H43            8.4071    -0.6002     0.0521 H       
  44 H44            5.9701    -0.9168    -0.0797 H       
  45 H45           -0.7186     3.9029     0.5704 H       
  46 H46           -0.9171     4.0264    -1.1941 H       
  47 H47           -2.3272     4.2159    -0.1245 H       
  48 H48           -2.0202    -2.1046     2.3707 H       
  49 H49            8.1185     4.3759     0.9834 H       
  50 H50            9.0277     4.0048    -0.5011 H       
  51 H51            7.3907     4.6953    -0.6092 H       
  52 H52           -5.2101    -1.9883    -0.4925 H       
  53 H53           -5.2135    -4.4454    -0.5794 H       
  54 H54           -2.9509    -6.4972    -0.0020 H       
  55 H55           -3.3158    -6.5622     1.7390 H       
  56 H56           -4.6421    -6.5091     0.5531 H       
  57 H57           -0.3442    -3.3239     2.6398 H       
  58 H58           -1.5339    -3.3745     3.9628 H       
  59 H59           -0.3211    -4.6679     3.8066 H       
@<TRIPOS>BOND
   1    1    2 1
   2    1    7 am
   3    1    6 1
   4    2    3 1
   5    2   33 1
   6    2   34 1
   7    3    4 1
   8    3   35 1
   9    3   36 1
  10    4    5 1
  11    4   15 am
  12    5    6 1
  13    5   37 1
  14    5   38 1
  15    6   23 1
  16    6   39 1
  17    7    8 1
  18    7   14 2
  19    8    9 2
  20    8   10 1
  21    9   12 1
  22   10   11 2
  23   11   12 1
  24   11   40 1
  25   12   13 1
  26   13   18 ar
  27   13   22 ar
  28   15   16 1
  29   15   17 2
  30   16   26 ar
  31   16   24 ar
  32   18   19 ar
  33   18   41 1
  34   19   20 ar
  35   19   25 1
  36   20   21 ar
  37   20   42 1
  38   21   22 ar
  39   21   43 1
  40   22   44 1
  41   23   45 1
  42   23   46 1
  43   23   47 1
  44   24   29 ar
  45   24   48 1
  46   25   49 1
  47   25   50 1
  48   25   51 1
  49   26   27 ar
  50   26   52 1
  51   27   28 ar
  52   27   53 1
  53   28   29 ar
  54   28   30 1
  55   29   32 1
  56   30   54 1
  57   30   55 1
  58   30   56 1
  59   31   32 1
  60   31   57 1
  61   31   58 1
  62   31   59 1

#	End of record

