#	Name: ASD01940321
#	Creating user name:	WinNT
#	Creation time:	15. 06. 2019 20:12

#	Modifying user name:	WinNT
#	Modification time:	15. 06. 2019 20:12

#	Program:	/corina/corina34_cracker 3.40 0067  02.08.2006

@<TRIPOS>MOLECULE
ASD01940321
  19   19    0    0    0
SMALL
NO_CHARGES


@<TRIPOS>ATOM
   1 C1            -0.0187     1.5258     0.0104 C.3     
   2 C2             0.0021    -0.0041     0.0020 C.3     
   3 C3             1.3951     2.0474    -0.0003 C.ar    
   4 C4             2.0179     2.3778     1.1887 C.ar    
   5 C5             3.3166     2.8571     1.1810 C.ar    
   6 C6             3.9923     3.0056    -0.0199 C.ar    
   7 C7             3.3661     2.6738    -1.2110 C.ar    
   8 C8             2.0693     2.1894    -1.1986 C.ar    
   9 F9             4.0226     2.8180    -2.3829 F       
  10 F10            5.2596     3.4737    -0.0295 F       
  11 F11            3.9247     3.1803     2.3433 F       
  12 O12           -0.7098     1.9991    -1.1473 O.3     
  13 H13           -0.5289     1.8773     0.9072 H       
  14 H14           -1.0205    -0.3814     0.0098 H       
  15 H15            0.5123    -0.3556    -0.8948 H       
  16 H16            0.5293    -0.3651     0.8851 H       
  17 H17            1.4909     2.2623     2.1242 H       
  18 H18            1.5825     1.9266    -2.1261 H       
  19 H19           -1.6280     1.7017    -1.2062 H       
@<TRIPOS>BOND
   1    1    2 1
   2    1    3 1
   3    1   12 1
   4    1   13 1
   5    2   14 1
   6    2   15 1
   7    2   16 1
   8    3    4 ar
   9    3    8 ar
  10    4    5 ar
  11    4   17 1
  12    5    6 ar
  13    5   11 1
  14    6    7 ar
  15    6   10 1
  16    7    8 ar
  17    7    9 1
  18    8   18 1
  19   12   19 1

#	End of record

