#	Name: ASD02198594
#	Creating user name:	WinNT
#	Creation time:	15. 06. 2019 20:19

#	Modifying user name:	WinNT
#	Modification time:	15. 06. 2019 20:19

#	Program:	/corina/corina34_cracker 3.40 0067  02.08.2006

@<TRIPOS>MOLECULE
ASD02198594
  49   53    0    0    0
SMALL
NO_CHARGES


@<TRIPOS>ATOM
   1 C1            -0.2495     1.4714    -0.2688 C.2     
   2 C2            -0.4247     0.1340    -0.1221 C.2     
   3 N3             0.6360    -0.6930     0.0162 N.pl3   
   4 N4             1.8512    -0.2850     0.0192 N.2     
   5 C5             2.1618     0.9866    -0.1145 C.2     
   6 C6             1.0762     1.9678    -0.2720 C.2     
   7 C7             0.3951    -2.0631     0.1641 C.ar    
   8 C8             0.9157    -2.7503     1.2596 C.ar    
   9 C9             0.6729    -4.1079     1.4004 C.ar    
  10 C10           -0.0829    -4.7766     0.4563 C.ar    
  11 C11           -0.5998    -4.0953    -0.6311 C.ar    
  12 C12           -0.3679    -2.7414    -0.7768 C.ar    
  13 C13            3.5734     1.4212    -0.1060 C.2     
  14 N14            4.2056     2.1462    -1.0768 N.pl3   
  15 N15            5.5318     2.3385    -0.6700 N.2     
  16 C16            5.7039     1.7602     0.4919 C.2     
  17 C17            4.4991     1.1771     0.8847 C.2     
  18 C18            3.6305     2.6127    -2.2657 C.ar    
  19 C19            2.7852     1.7905    -2.9991 C.ar    
  20 O20            1.3093     3.1605    -0.3997 O.2     
  21 C21            3.8998     3.9003    -2.7105 C.ar    
  22 C22            3.3308     4.3575    -3.8830 C.ar    
  23 C23            2.4936     3.5344    -4.6137 C.ar    
  24 C24            2.2192     2.2535    -4.1707 C.ar    
  25 O25            1.6594    -2.0914     2.1866 O.3     
  26 C26            2.0777    -2.7839     3.2783 C.ar    
  27 C27            3.1556    -3.6521     3.1797 C.ar    
  28 C28            1.4313    -2.6197     4.4952 C.ar    
  29 C29            1.8585    -3.3249     5.6035 C.ar    
  30 C30            2.9296    -4.1934     5.5012 C.ar    
  31 C31            3.5788    -4.3549     4.2911 C.ar    
  32 H32           -1.0937     2.1350    -0.3840 H       
  33 H33           -1.4242    -0.2752    -0.1153 H       
  34 H34            1.0747    -4.6432     2.2480 H       
  35 H35           -0.2703    -5.8343     0.5675 H       
  36 H36           -1.1895    -4.6227    -1.3663 H       
  37 H37           -0.7731    -2.2124    -1.6266 H       
  38 H38            6.6252     1.7412     1.0550 H       
  39 H39            4.3251     0.6277     1.7980 H       
  40 H40            2.5708     0.7899    -2.6538 H       
  41 H41            4.5533     4.5437    -2.1400 H       
  42 H42            3.5396     5.3589    -4.2293 H       
  43 H43            2.0498     3.8942    -5.5303 H       
  44 H44            1.5650     1.6131    -4.7437 H       
  45 H45            3.6630    -3.7786     2.2347 H       
  46 H46            0.5951    -1.9409     4.5757 H       
  47 H47            1.3557    -3.1975     6.5508 H       
  48 H48            3.2625    -4.7433     6.3691 H       
  49 H49            4.4149    -5.0341     4.2138 H       
@<TRIPOS>BOND
   1    1    2 2
   2    1    6 1
   3    1   32 1
   4    2    3 1
   5    2   33 1
   6    3    4 1
   7    3    7 1
   8    4    5 2
   9    5    6 1
  10    5   13 1
  11    6   20 2
  12    7    8 ar
  13    7   12 ar
  14    8    9 ar
  15    8   25 1
  16    9   10 ar
  17    9   34 1
  18   10   11 ar
  19   10   35 1
  20   11   12 ar
  21   11   36 1
  22   12   37 1
  23   13   14 1
  24   13   17 2
  25   14   15 1
  26   14   18 1
  27   15   16 2
  28   16   17 1
  29   16   38 1
  30   17   39 1
  31   18   21 ar
  32   18   19 ar
  33   19   24 ar
  34   19   40 1
  35   21   22 ar
  36   21   41 1
  37   22   23 ar
  38   22   42 1
  39   23   24 ar
  40   23   43 1
  41   24   44 1
  42   25   26 1
  43   26   27 ar
  44   26   28 ar
  45   27   31 ar
  46   27   45 1
  47   28   29 ar
  48   28   46 1
  49   29   30 ar
  50   29   47 1
  51   30   31 ar
  52   30   48 1
  53   31   49 1

#	End of record

