#	Name: ASD01881777
#	Creating user name:	WinNT
#	Creation time:	15. 06. 2019 19:43

#	Modifying user name:	WinNT
#	Modification time:	15. 06. 2019 19:43

#	Program:	/corina/corina34_cracker 3.40 0067  02.08.2006

@<TRIPOS>MOLECULE
ASD01881777
  39   42    0    0    0
SMALL
NO_CHARGES


@<TRIPOS>ATOM
   1 C1            -0.0184     1.5028     0.0103 C.2     
   2 C2             0.0021    -0.0041     0.0020 C.3     
   3 C3             1.2493     2.2578     0.0023 C.ar    
   4 C4             1.2241     3.6531     0.0100 C.ar    
   5 C5             2.4232     4.3475     0.0027 C.ar    
   6 C6             3.6061     3.6248    -0.0120 C.ar    
   7 C7             3.5569     2.2391    -0.0190 C.ar    
   8 N8             2.4061     1.6039    -0.0068 N.ar    
   9 O9            -1.3386    -0.4987     0.0122 O.3     
  10 N10           -2.2566    -5.8988    -0.0086 N.pl3   
  11 N11           -3.6569    -5.8175     0.0059 N.2     
  12 N12           -4.0139    -4.5818     0.0165 N.2     
  13 C13           -2.9298    -3.7807     0.0102 C.ar    
  14 C14           -1.7904    -4.6038    -0.0059 C.ar    
  15 C15           -2.7682    -2.3884     0.0157 C.ar    
  16 C16           -1.4984    -1.8491     0.0064 C.ar    
  17 C17           -0.3790    -2.6777    -0.0092 C.ar    
  18 C18           -0.5211    -4.0368    -0.0161 C.ar    
  19 C19           -1.4493    -7.1212    -0.0182 C.3     
  20 C20           -1.1826    -7.5450    -1.4639 C.3     
  21 C21           -0.2539    -8.7396    -1.6901 C.3     
  22 C22           -1.7587    -8.8852    -1.9250 C.3     
  23 Br23          -4.2822    -1.2556     0.0366 Br      
  24 O24           -1.0762     2.0945     0.0185 O.2     
  25 H25            0.5123    -0.3556    -0.8948 H       
  26 H26            0.5293    -0.3651     0.8851 H       
  27 H27            0.2837     4.1839     0.0211 H       
  28 H28            2.4359     5.4274     0.0081 H       
  29 H29            4.5573     4.1364    -0.0183 H       
  30 H30            4.4770     1.6737    -0.0305 H       
  31 H31            0.6094    -2.2425    -0.0166 H       
  32 H32            0.3532    -4.6707    -0.0284 H       
  33 H33           -0.5014    -6.9347     0.4865 H       
  34 H34           -1.9866    -7.9155     0.5000 H       
  35 H35           -1.1469    -6.7348    -2.1923 H       
  36 H36            0.3925    -8.7156    -2.5674 H       
  37 H37            0.1671    -9.2237    -0.8089 H       
  38 H38           -2.3277    -9.4651    -1.1984 H       
  39 H39           -2.1023    -8.9570    -2.9570 H       
@<TRIPOS>BOND
   1    1    2 1
   2    1    3 1
   3    1   24 2
   4    2    9 1
   5    2   25 1
   6    2   26 1
   7    3    4 ar
   8    3    8 ar
   9    4    5 ar
  10    4   27 1
  11    5    6 ar
  12    5   28 1
  13    6    7 ar
  14    6   29 1
  15    7    8 ar
  16    7   30 1
  17    9   16 1
  18   10   11 1
  19   10   14 1
  20   10   19 1
  21   11   12 2
  22   12   13 1
  23   13   14 ar
  24   13   15 ar
  25   14   18 ar
  26   15   16 ar
  27   15   23 1
  28   16   17 ar
  29   17   18 ar
  30   17   31 1
  31   18   32 1
  32   19   20 1
  33   19   33 1
  34   19   34 1
  35   20   21 1
  36   20   22 1
  37   20   35 1
  38   21   22 1
  39   21   36 1
  40   21   37 1
  41   22   38 1
  42   22   39 1

#	End of record

