#	Name: ASD01420061
#	Creating user name:	WinNT
#	Creation time:	15. 06. 2019 19:20

#	Modifying user name:	WinNT
#	Modification time:	15. 06. 2019 19:20

#	Program:	/corina/corina34_cracker 3.40 0067  02.08.2006

@<TRIPOS>MOLECULE
ASD01420061
  53   55    0    0    0
SMALL
NO_CHARGES


@<TRIPOS>ATOM
   1 C1             0.4687     1.2601     0.1162 C.2     
   2 N2             0.5968    -0.0794     0.1034 N.am    
   3 C3             1.9992    -0.4788    -0.0670 C.3     
   4 C4             2.8308     0.7810     0.2659 C.3     
   5 C5             1.8223     1.9082    -0.0336 C.3     
   6 C6             2.0177     2.4184    -1.4575 C.3     
   7 C7             0.9768     3.5031    -1.7563 C.3     
   8 N8             1.0577     4.5347    -0.7132 N.am    
   9 C9             0.9485     4.1291     0.6947 C.3     
  10 C10            1.9896     3.0396     0.9752 C.3     
  11 O11           -0.5808     1.8578     0.2268 O.2     
  12 C12           -0.5193    -1.0181     0.2421 C.3     
  13 C13            1.2296     5.8304    -1.0421 C.2     
  14 C14            1.1796     6.8703     0.0042 C.ar    
  15 C15            2.1025     7.9197    -0.0064 C.ar    
  16 C16            2.0522     8.8880     0.9710 C.ar    
  17 C17            1.0852     8.8229     1.9676 C.ar    
  18 C18            0.1656     7.7809     1.9816 C.ar    
  19 C19            0.2059     6.8113     1.0044 C.ar    
  20 O20            1.4258     6.1426    -2.2007 O.2     
  21 O21            1.0392     9.7790     2.9295 O.3     
  22 C22            3.0473    10.0198     0.9609 C.3     
  23 C23            3.9937     9.8562    -0.2301 C.3     
  24 C24            2.3036    11.3516     0.8422 C.3     
  25 C25            3.8547    10.0006     2.2604 C.3     
  26 H26            2.2474    -1.2871     0.6209 H       
  27 H27            2.1806    -0.7894    -1.0960 H       
  28 H28            3.1246     0.7888     1.3155 H       
  29 H29            3.7035     0.8554    -0.3829 H       
  30 H30            3.0188     2.8372    -1.5595 H       
  31 H31            1.8950     1.5935    -2.1594 H       
  32 H32            1.1832     3.9498    -2.7290 H       
  33 H33           -0.0202     3.0625    -1.7581 H       
  34 H34            1.1363     4.9886     1.3383 H       
  35 H35           -0.0507     3.7378     0.8860 H       
  36 H36            1.8471     2.6515     1.9838 H       
  37 H37            2.9906     3.4616     0.8857 H       
  38 H38           -1.4500    -0.4620     0.3544 H       
  39 H39           -0.5771    -1.6476    -0.6459 H       
  40 H40           -0.3613    -1.6433     1.1209 H       
  41 H41            2.8543     7.9708    -0.7800 H       
  42 H42           -0.5842     7.7338     2.7574 H       
  43 H43           -0.5119     6.0044     1.0133 H       
  44 H44            0.4773    10.5340     2.7072 H       
  45 H45            3.4184     9.8698    -1.1558 H       
  46 H46            4.7134    10.6747    -0.2374 H       
  47 H47            4.5235     8.9073    -0.1455 H       
  48 H48            1.6294    11.4682     1.6907 H       
  49 H49            3.0233    12.1702     0.8349 H       
  50 H50            1.7284    11.3653    -0.0835 H       
  51 H51            4.3845     9.0518     2.3449 H       
  52 H52            4.5744    10.8192     2.2530 H       
  53 H53            3.1805    10.1171     3.1088 H       
@<TRIPOS>BOND
   1    1    2 am
   2    1    5 1
   3    1   11 2
   4    2    3 1
   5    2   12 1
   6    3    4 1
   7    3   26 1
   8    3   27 1
   9    4    5 1
  10    4   28 1
  11    4   29 1
  12    5    6 1
  13    5   10 1
  14    6    7 1
  15    6   30 1
  16    6   31 1
  17    7    8 1
  18    7   32 1
  19    7   33 1
  20    8    9 1
  21    8   13 am
  22    9   10 1
  23    9   34 1
  24    9   35 1
  25   10   36 1
  26   10   37 1
  27   12   38 1
  28   12   39 1
  29   12   40 1
  30   13   14 1
  31   13   20 2
  32   14   15 ar
  33   14   19 ar
  34   15   16 ar
  35   15   41 1
  36   16   17 ar
  37   16   22 1
  38   17   18 ar
  39   17   21 1
  40   18   19 ar
  41   18   42 1
  42   19   43 1
  43   21   44 1
  44   22   23 1
  45   22   25 1
  46   22   24 1
  47   23   45 1
  48   23   46 1
  49   23   47 1
  50   24   48 1
  51   24   49 1
  52   24   50 1
  53   25   51 1
  54   25   52 1
  55   25   53 1

#	End of record

