#	Name: ASD01815872
#	Creating user name:	WinNT
#	Creation time:	15. 06. 2019 19:34

#	Modifying user name:	WinNT
#	Modification time:	15. 06. 2019 19:34

#	Program:	/corina/corina34_cracker 3.40 0067  02.08.2006

@<TRIPOS>MOLECULE
ASD01815872
  54   59    0    0    0
SMALL
NO_CHARGES


@<TRIPOS>ATOM
   1 C1            -0.0167     1.3813     0.0096 C.ar    
   2 C2             0.0021    -0.0041     0.0020 C.ar    
   3 C3             1.1984    -0.6909    -0.0126 C.ar    
   4 C4             2.4015     0.0059    -0.0198 C.ar    
   5 C5             2.3790     1.4106    -0.0126 C.ar    
   6 C6             1.1663     2.0916     0.0022 C.ar    
   7 N7             3.6053    -0.6772    -0.0336 N.pl3   
   8 C8             4.7971    -0.0586    -0.0406 C.2     
   9 C9             4.9000     1.3103    -0.0351 C.2     
  10 C10            3.6670     2.1302    -0.0205 C.2     
  11 C11            5.9971     2.2729    -0.0394 C.2     
  12 N12            5.4246     3.4960    -0.0287 N.am    
  13 N13            4.0323     3.3799    -0.0175 N.2     
  14 C14            6.1260     4.7073    -0.0277 C.ar    
  15 O15            7.1914     2.0229    -0.0498 O.2     
  16 C16            3.5779    -2.1419    -0.0402 C.3     
  17 C17            3.5561    -2.6375    -1.4632 C.ar    
  18 C18            4.7452    -2.8865    -2.1244 C.ar    
  19 C19            4.7311    -3.3405    -3.4278 C.ar    
  20 C20            3.5160    -3.5479    -4.0774 C.ar    
  21 C21            2.3212    -3.2955    -3.4065 C.ar    
  22 C22            2.3469    -2.8471    -2.1014 C.ar    
  23 C23            3.4945    -4.0354    -5.4787 C.ar    
  24 C24            2.2794    -4.2429    -6.1284 C.ar    
  25 C25            2.2653    -4.6965    -7.4318 C.ar    
  26 C26            3.4545    -4.9455    -8.0930 C.ar    
  27 C27            4.6635    -4.7417    -7.4528 C.ar    
  28 C28            4.6895    -4.2820    -6.1517 C.ar    
  29 C29            5.4346     5.9115    -0.0162 C.ar    
  30 C30            7.5152     4.7072    -0.0325 C.ar    
  31 C31            8.2048     5.9035    -0.0310 C.ar    
  32 C32            7.5143     7.1017    -0.0249 C.ar    
  33 C33            6.1305     7.1060    -0.0148 C.ar    
  34 Cl34           5.2678     8.6124    -0.0070 Cl      
  35 H35           -0.9602     1.9068     0.0169 H       
  36 H36           -0.9289    -0.5516     0.0079 H       
  37 H37            1.2004    -1.7709    -0.0181 H       
  38 H38            1.1506     3.1715     0.0081 H       
  39 H39            5.6983    -0.6536    -0.0506 H       
  40 H40            4.4654    -2.5242     0.4641 H       
  41 H41            2.6858    -2.4910     0.4798 H       
  42 H42            5.6865    -2.7250    -1.6201 H       
  43 H43            5.6602    -3.5342    -3.9432 H       
  44 H44            1.3766    -3.4546    -3.9053 H       
  45 H45            1.4214    -2.6511    -1.5804 H       
  46 H46            1.3504    -4.0495    -5.6128 H       
  47 H47            1.3241    -4.8576    -7.9363 H       
  48 H48            3.4388    -5.3007    -9.1128 H       
  49 H49            5.5891    -4.9381    -7.9736 H       
  50 H50            5.6341    -4.1229    -5.6528 H       
  51 H51            4.3547     5.9149    -0.0087 H       
  52 H52            8.0555     3.7720    -0.0369 H       
  53 H53            9.2848     5.9035    -0.0344 H       
  54 H54            8.0562     8.0360    -0.0234 H       
@<TRIPOS>BOND
   1    1    2 ar
   2    1    6 ar
   3    1   35 1
   4    2    3 ar
   5    2   36 1
   6    3    4 ar
   7    3   37 1
   8    4    5 ar
   9    4    7 1
  10    5    6 ar
  11    5   10 1
  12    6   38 1
  13    7    8 1
  14    7   16 1
  15    8    9 2
  16    8   39 1
  17    9   10 1
  18    9   11 1
  19   10   13 2
  20   11   12 am
  21   11   15 2
  22   12   13 1
  23   12   14 1
  24   14   29 ar
  25   14   30 ar
  26   16   17 1
  27   16   40 1
  28   16   41 1
  29   17   18 ar
  30   17   22 ar
  31   18   19 ar
  32   18   42 1
  33   19   20 ar
  34   19   43 1
  35   20   21 ar
  36   20   23 1
  37   21   22 ar
  38   21   44 1
  39   22   45 1
  40   23   24 ar
  41   23   28 ar
  42   24   25 ar
  43   24   46 1
  44   25   26 ar
  45   25   47 1
  46   26   27 ar
  47   26   48 1
  48   27   28 ar
  49   27   49 1
  50   28   50 1
  51   29   33 ar
  52   29   51 1
  53   30   31 ar
  54   30   52 1
  55   31   32 ar
  56   31   53 1
  57   32   33 ar
  58   32   54 1
  59   33   34 1

#	End of record

