#	Name: ASD01811272
#	Creating user name:	WinNT
#	Creation time:	15. 06. 2019 19:26

#	Modifying user name:	WinNT
#	Modification time:	15. 06. 2019 19:26

#	Program:	/corina/corina34_cracker 3.40 0067  02.08.2006

@<TRIPOS>MOLECULE
ASD01811272
  66   70    0    0    0
SMALL
NO_CHARGES


@<TRIPOS>ATOM
   1 N1             4.1919    -7.7959     0.7604 N.ar    
   2 C2             3.1847    -7.0312     1.1343 C.ar    
   3 C3             3.3237    -5.6574     1.1922 C.ar    
   4 C4             4.5405    -5.0865     0.8518 C.ar    
   5 C5             5.5763    -5.9226     0.4641 C.ar    
   6 C6             5.3630    -7.2877     0.4298 C.ar    
   7 N7             6.2364    -1.2158     0.6029 N.am    
   8 C8             6.0223    -1.7343     1.9609 C.3     
   9 C9             5.8534    -3.2550     1.8871 C.3     
  10 C10            4.7324    -3.5926     0.9015 C.3     
  11 C11            5.1042    -3.0797    -0.4917 C.3     
  12 C12            5.2645    -1.5569    -0.4449 C.3     
  13 C13            7.3009    -0.4374     0.3250 C.2     
  14 C14            8.2006     0.0010     1.4135 C.ar    
  15 C15            7.6686     0.4176     2.6363 C.ar    
  16 C16            8.5072     0.8272     3.6537 C.ar    
  17 C17            9.8760     0.8282     3.4705 C.ar    
  18 C18           10.4210     0.4141     2.2530 C.ar    
  19 C19            9.5805    -0.0060     1.2239 C.ar    
  20 O20            7.5215    -0.0958    -0.8205 O.2     
  21 C21           11.8864     0.4166     2.0583 C.2     
  22 N22           12.4054     0.1460     0.8442 N.am    
  23 O23           12.6234     0.6627     2.9932 O.2     
  24 C24           13.7934     0.0437     0.6826 C.ar    
  25 C25           14.5949    -0.4040     1.7320 C.ar    
  26 C26           10.7835     1.2774     4.5866 C.3     
  27 C27           14.3860     0.3810    -0.5245 C.ar    
  28 N28           15.6925     0.2869    -0.6845 N.ar    
  29 C29           16.4844    -0.1288     0.2911 C.ar    
  30 C30           15.9597    -0.4892     1.5281 C.ar    
  31 N31           17.8572    -0.2117     0.0753 N.3     
  32 C32           18.2028     0.2077    -1.2953 C.3     
  33 C33           19.2223     1.3602    -1.1774 C.3     
  34 C34           19.8262     1.1493     0.2360 C.3     
  35 C35           18.5960     0.6425     1.0294 C.3     
  36 H36            2.2402    -7.4838     1.3978 H       
  37 H37            2.4949    -5.0364     1.4984 H       
  38 H38            6.5375    -5.5124     0.1918 H       
  39 H39            6.1647    -7.9458     0.1289 H       
  40 H40            6.8829    -1.4920     2.5844 H       
  41 H41            5.1235    -1.2870     2.3853 H       
  42 H42            6.7848    -3.7085     1.5479 H       
  43 H43            5.5985    -3.6411     2.8741 H       
  44 H44            3.8069    -3.1182     1.2278 H       
  45 H45            6.0426    -3.5348    -0.8085 H       
  46 H46            4.3160    -3.3410    -1.1979 H       
  47 H47            4.3039    -1.0952    -0.2166 H       
  48 H48            5.6252    -1.1977    -1.4087 H       
  49 H49            6.5991     0.4196     2.7859 H       
  50 H50            8.0908     1.1487     4.5969 H       
  51 H51            9.9970    -0.3311     0.2820 H       
  52 H52           11.8180     0.0221     0.0823 H       
  53 H53           14.1599    -0.6774     2.6819 H       
  54 H54           11.1631     0.4056     5.1195 H       
  55 H55           11.6187     1.8412     4.1710 H       
  56 H56           10.2253     1.9103     5.2764 H       
  57 H57           13.7713     0.7244    -1.3435 H       
  58 H58           16.6107    -0.8278     2.3205 H       
  59 H59           18.6476    -0.6268    -1.8374 H       
  60 H60           17.3089     0.5550    -1.8134 H       
  61 H61           19.9933     1.2725    -1.9429 H       
  62 H62           18.7213     2.3260    -1.2423 H       
  63 H63           20.6146     0.3970     0.2155 H       
  64 H64           20.1957     2.0889     0.6468 H       
  65 H65           17.9766     1.4816     1.3459 H       
  66 H66           18.9155     0.0587     1.8926 H       
@<TRIPOS>BOND
   1    1    2 ar
   2    1    6 ar
   3    2    3 ar
   4    2   36 1
   5    3    4 ar
   6    3   37 1
   7    4    5 ar
   8    4   10 1
   9    5    6 ar
  10    5   38 1
  11    6   39 1
  12    7    8 1
  13    7   12 1
  14    7   13 am
  15    8    9 1
  16    8   40 1
  17    8   41 1
  18    9   10 1
  19    9   42 1
  20    9   43 1
  21   10   11 1
  22   10   44 1
  23   11   12 1
  24   11   45 1
  25   11   46 1
  26   12   47 1
  27   12   48 1
  28   13   14 1
  29   13   20 2
  30   14   15 ar
  31   14   19 ar
  32   15   16 ar
  33   15   49 1
  34   16   17 ar
  35   16   50 1
  36   17   18 ar
  37   17   26 1
  38   18   19 ar
  39   18   21 1
  40   19   51 1
  41   21   22 am
  42   21   23 2
  43   22   24 1
  44   22   52 1
  45   24   27 ar
  46   24   25 ar
  47   25   30 ar
  48   25   53 1
  49   26   54 1
  50   26   55 1
  51   26   56 1
  52   27   28 ar
  53   27   57 1
  54   28   29 ar
  55   29   30 ar
  56   29   31 1
  57   30   58 1
  58   31   32 1
  59   31   35 1
  60   32   33 1
  61   32   59 1
  62   32   60 1
  63   33   34 1
  64   33   61 1
  65   33   62 1
  66   34   35 1
  67   34   63 1
  68   34   64 1
  69   35   65 1
  70   35   66 1

#	End of record

