#	Name: ASD01917789
#	Creating user name:	WinNT
#	Creation time:	15. 06. 2019 20:10

#	Modifying user name:	WinNT
#	Modification time:	15. 06. 2019 20:10

#	Program:	/corina/corina34_cracker 3.40 0067  02.08.2006

@<TRIPOS>MOLECULE
ASD01917789
  45   48    0    0    0
SMALL
NO_CHARGES


@<TRIPOS>ATOM
   1 C1            -0.5431     1.7538     1.0132 C.2     
   2 C2            -0.3512     0.4209     1.0402 C.2     
   3 C3            -1.3979    -0.6012     0.6759 C.3     
   4 C4            -2.7782     0.0663     0.7194 C.3     
   5 N5            -2.7055     1.3687     0.0404 N.am    
   6 C6            -1.8426     2.4131     0.6221 C.3     
   7 C7            -3.4092     1.6017    -1.0852 C.2     
   8 O8            -4.0381     0.7012    -1.6061 O.2     
   9 C9            -3.4164     2.9523    -1.6864 C.ar    
  10 O10            0.6034     2.3328     1.3932 O.3     
  11 C11            1.4844     1.3536     1.6524 C.2     
  12 N12            0.9086     0.2019     1.4400 N.2     
  13 C13            2.9056     1.5518     2.1127 C.3     
  14 O14            3.7659     1.6455     0.9755 O.3     
  15 C15            5.0909     1.8269     1.2176 C.ar    
  16 C16            5.9832     1.9263     0.1599 C.ar    
  17 C17            7.3295     2.1106     0.4086 C.ar    
  18 C18            7.7879     2.1960     1.7102 C.ar    
  19 C19            6.9008     2.0967     2.7661 C.ar    
  20 C20            5.5526     1.9186     2.5226 C.ar    
  21 C21           -3.2501     3.1175    -3.0618 C.ar    
  22 N22           -3.2560     4.3205    -3.5974 N.ar    
  23 C23           -3.4175     5.4075    -2.8673 C.ar    
  24 C24           -3.5890     5.3283    -1.4967 C.ar    
  25 C25           -3.5959     4.0870    -0.8857 C.ar    
  26 C26           -3.0617     1.9088    -3.9419 C.3     
  27 H27           -1.2061    -0.9783    -0.3286 H       
  28 H28           -1.3680    -1.4248     1.3892 H       
  29 H29           -3.5058    -0.5682     0.2134 H       
  30 H30           -3.0797     0.2125     1.7566 H       
  31 H31           -2.3209     2.8412     1.5031 H       
  32 H32           -1.6558     3.1933    -0.1157 H       
  33 H33            2.9737     2.4698     2.6965 H       
  34 H34            3.2092     0.7058     2.7293 H       
  35 H35            5.6256     1.8594    -0.8570 H       
  36 H36            8.0246     2.1877    -0.4144 H       
  37 H37            8.8409     2.3400     1.9026 H       
  38 H38            7.2614     2.1630     3.7819 H       
  39 H39            4.8600     1.8411     3.3476 H       
  40 H40           -3.4155     6.3749    -3.3474 H       
  41 H41           -3.7202     6.2258    -0.9105 H       
  42 H42           -3.7278     3.9960     0.1823 H       
  43 H43           -4.0355     1.4962    -4.2059 H       
  44 H44           -2.5321     2.1991    -4.8493 H       
  45 H45           -2.4813     1.1569    -3.4072 H       
@<TRIPOS>BOND
   1    1    2 2
   2    1   10 1
   3    1    6 1
   4    2    3 1
   5    2   12 1
   6    3    4 1
   7    3   27 1
   8    3   28 1
   9    4    5 1
  10    4   29 1
  11    4   30 1
  12    5    6 1
  13    5    7 am
  14    6   31 1
  15    6   32 1
  16    7    8 2
  17    7    9 1
  18    9   21 ar
  19    9   25 ar
  20   10   11 1
  21   11   12 2
  22   11   13 1
  23   13   14 1
  24   13   33 1
  25   13   34 1
  26   14   15 1
  27   15   16 ar
  28   15   20 ar
  29   16   17 ar
  30   16   35 1
  31   17   18 ar
  32   17   36 1
  33   18   19 ar
  34   18   37 1
  35   19   20 ar
  36   19   38 1
  37   20   39 1
  38   21   22 ar
  39   21   26 1
  40   22   23 ar
  41   23   24 ar
  42   23   40 1
  43   24   25 ar
  44   24   41 1
  45   25   42 1
  46   26   43 1
  47   26   44 1
  48   26   45 1

#	End of record

