#	Name: ASD05380094
#	Creating user name:	WinNT
#	Creation time:	15. 06. 2019 20:59

#	Modifying user name:	WinNT
#	Modification time:	15. 06. 2019 20:59

#	Program:	/corina/corina34_cracker 3.40 0067  02.08.2006

@<TRIPOS>MOLECULE
ASD05380094
  69   73    0    0    0
SMALL
NO_CHARGES


@<TRIPOS>ATOM
   1 C1             0.2430     0.7192    -0.9983 C.ar    
   2 C2             0.3392    -0.6857    -0.8824 C.ar    
   3 C3             1.3661     1.4700    -1.3388 C.ar    
   4 C4             2.5673     0.8322    -1.5608 C.ar    
   5 C5             2.6654    -0.5482    -1.4478 C.ar    
   6 C6             1.5673    -1.3085    -1.1123 C.ar    
   7 N7            -0.7674    -1.3960    -0.5492 N.2     
   8 C8            -1.9094    -0.8164    -0.3351 C.2     
   9 N9            -2.0935     0.5287    -0.4242 N.am    
  10 C10           -1.0627     1.3453    -0.7440 C.2     
  11 C11           -3.3600     1.0737    -0.1775 C.ar    
  12 C12           -4.3929     0.8713    -1.0833 C.ar    
  13 C13           -3.5868     1.8126     0.9761 C.ar    
  14 C14           -5.8620     2.1495     0.3102 C.ar    
  15 C15           -3.0910    -1.6774     0.0303 C.3     
  16 N16           -2.9817    -2.9706    -0.6495 N.pl3   
  17 C17           -1.8885    -3.7858    -0.4142 C.ar    
  18 N18           -0.9288    -3.4109     0.4255 N.ar    
  19 O19           -1.2129     2.5504    -0.8269 O.2     
  20 C20           -1.7701    -5.0317    -1.0529 C.ar    
  21 C21           -0.6373    -5.8153    -0.7740 C.ar    
  22 N22            0.2736    -5.3539     0.0765 N.ar    
  23 C23            0.1178    -4.1822     0.6561 C.ar    
  24 N24           -2.5271    -5.7249    -1.9369 N.2     
  25 C25           -1.9455    -6.8562    -2.2117 C.2     
  26 N26           -0.7760    -6.9590    -1.5189 N.pl3   
  27 C27           -3.1130    -1.8974     1.5442 C.3     
  28 C28           -5.6407     1.4097    -0.8370 C.ar    
  29 C29           -4.8368     2.3483     1.2166 C.ar    
  30 C30           -4.3789    -2.6655     1.9296 C.3     
  31 C31           -4.4010    -2.8855     3.4435 C.3     
  32 N32           -5.6163    -3.6230     3.8135 N.3     
  33 C33           -5.5612    -4.0593     5.2151 C.3     
  34 C34           -6.8185    -2.8177     3.5598 C.3     
  35 C35           -8.0646    -3.6752     3.7897 C.3     
  36 C36           -4.4650    -5.1142     5.3781 C.3     
  37 C37            1.2679     2.9685    -1.4640 C.3     
  38 H38            3.4399     1.4110    -1.8253 H       
  39 H39            3.6146    -1.0317    -1.6253 H       
  40 H40            1.6559    -2.3814    -1.0268 H       
  41 H41           -4.2206     0.2939    -1.9796 H       
  42 H42           -2.7866     1.9680     1.6846 H       
  43 H43           -6.8386     2.5697     0.5004 H       
  44 H44           -4.0112    -1.1814    -0.2782 H       
  45 H45           -3.6756    -3.2553    -1.2646 H       
  46 H46            0.8748    -3.8387     1.3456 H       
  47 H47           -2.3324    -7.6035    -2.8887 H       
  48 H48           -0.1554    -7.7039    -1.5478 H       
  49 H49           -2.2352    -2.4715     1.8408 H       
  50 H50           -3.1047    -0.9328     2.0517 H       
  51 H51           -6.4434     1.2561    -1.5430 H       
  52 H52           -5.0140     2.9229     2.1138 H       
  53 H53           -5.2567    -2.0914     1.6330 H       
  54 H54           -4.3872    -3.6302     1.4221 H       
  55 H55           -3.5232    -3.4596     3.7401 H       
  56 H56           -4.3927    -1.9208     3.9510 H       
  57 H57           -5.3401    -3.2040     5.8535 H       
  58 H58           -6.5222    -4.4870     5.5006 H       
  59 H59           -6.8342    -1.9647     4.2382 H       
  60 H60           -6.8070    -2.4624     2.5294 H       
  61 H61           -7.9989    -4.5807     3.1866 H       
  62 H62           -8.1308    -3.9447     4.8438 H       
  63 H63           -8.9519    -3.1110     3.5026 H       
  64 H64           -4.7233    -5.9994     4.7969 H       
  65 H65           -3.5167    -4.7106     5.0231 H       
  66 H66           -4.3739    -5.3841     6.4302 H       
  67 H67            1.3672     3.4228    -0.4781 H       
  68 H68            2.0645     3.3319    -2.1133 H       
  69 H69            0.3011     3.2349    -1.8910 H       
@<TRIPOS>BOND
   1    1    2 ar
   2    1    3 ar
   3    1   10 1
   4    2    7 1
   5    2    6 ar
   6    3    4 ar
   7    3   37 1
   8    4    5 ar
   9    4   38 1
  10    5    6 ar
  11    5   39 1
  12    6   40 1
  13    7    8 2
  14    8    9 1
  15    8   15 1
  16    9   10 am
  17    9   11 1
  18   10   19 2
  19   11   12 ar
  20   11   13 ar
  21   12   28 ar
  22   12   41 1
  23   13   29 ar
  24   13   42 1
  25   14   28 ar
  26   14   29 ar
  27   14   43 1
  28   15   16 1
  29   15   27 1
  30   15   44 1
  31   16   17 1
  32   16   45 1
  33   17   18 ar
  34   17   20 ar
  35   18   23 ar
  36   20   21 ar
  37   20   24 1
  38   21   22 ar
  39   21   26 1
  40   22   23 ar
  41   23   46 1
  42   24   25 2
  43   25   26 1
  44   25   47 1
  45   26   48 1
  46   27   30 1
  47   27   49 1
  48   27   50 1
  49   28   51 1
  50   29   52 1
  51   30   31 1
  52   30   53 1
  53   30   54 1
  54   31   32 1
  55   31   55 1
  56   31   56 1
  57   32   33 1
  58   32   34 1
  59   33   36 1
  60   33   57 1
  61   33   58 1
  62   34   35 1
  63   34   59 1
  64   34   60 1
  65   35   61 1
  66   35   62 1
  67   35   63 1
  68   36   64 1
  69   36   65 1
  70   36   66 1
  71   37   67 1
  72   37   68 1
  73   37   69 1

#	End of record

