#	Name: ASD03091273
#	Creating user name:	WinNT
#	Creation time:	15. 06. 2019 20:30

#	Modifying user name:	WinNT
#	Modification time:	15. 06. 2019 20:30

#	Program:	/corina/corina34_cracker 3.40 0067  02.08.2006

@<TRIPOS>MOLECULE
ASD03091273
  48   52    0    0    0
SMALL
NO_CHARGES


@<TRIPOS>ATOM
   1 N1            -0.2581     1.9554    -0.0714 N.2     
   2 C2            -0.3469     0.6521    -0.1384 C.2     
   3 N3             0.7469    -0.1701    -0.1782 N.am    
   4 C4             1.9960     0.3502    -0.1489 C.2     
   5 C5             2.1199     1.8135    -0.0742 C.ar    
   6 C6             3.3617     2.4440    -0.0398 C.ar    
   7 C7             3.4198     3.8257     0.0302 C.ar    
   8 C8             2.2474     4.5809     0.0660 C.ar    
   9 C9             1.0235     3.9772     0.0335 C.ar    
  10 C10            0.9349     2.5834    -0.0371 C.ar    
  11 O11            2.9797    -0.3661    -0.1828 O.2     
  12 C12            5.6841     3.6194     0.7544 C.3     
  13 N13            4.6608     4.4676     0.0656 N.3     
  14 C14            4.5848     5.7286     0.8422 C.3     
  15 C15            5.6478     5.5731     1.9735 C.3     
  16 N16            5.0557     4.5509     2.8930 N.3     
  17 C17            5.0327     3.2793     2.1306 C.3     
  18 C18            6.7174     4.7095     1.2138 C.3     
  19 C19            3.7017     4.9392     3.3099 C.3     
  20 C20            0.5644    -1.6218    -0.2525 C.3     
  21 C21           -1.6903     0.0388    -0.1721 C.ar    
  22 C22           -2.0563    -0.7931    -1.2350 C.ar    
  23 C23           -3.3152    -1.3637    -1.2591 C.ar    
  24 C24           -4.2107    -1.1128    -0.2359 C.ar    
  25 C25           -3.8541    -0.2899     0.8194 C.ar    
  26 C26           -2.5984     0.2822     0.8597 C.ar    
  27 F27           -1.1823    -1.0380    -2.2356 F       
  28 Cl28          -4.9871     0.0182     2.0980 Cl      
  29 H29            4.2702     1.8608    -0.0671 H       
  30 H30            2.3090     5.6578     0.1206 H       
  31 H31            0.1247     4.5753     0.0626 H       
  32 H32            6.0716     2.7758     0.1832 H       
  33 H33            4.8299     6.5797     0.2069 H       
  34 H34            3.5902     5.8495     1.2713 H       
  35 H35            5.9932     6.4957     2.4400 H       
  36 H36            4.0062     2.9406     1.9901 H       
  37 H37            5.6161     2.5174     2.6475 H       
  38 H38            7.4758     4.3053     1.8842 H       
  39 H39            7.1588     5.2431     0.3719 H       
  40 H40            3.0237     4.8626     2.4598 H       
  41 H41            3.3625     4.2764     4.1060 H       
  42 H42            3.7141     5.9668     3.6733 H       
  43 H43            0.4479    -1.9205    -1.2943 H       
  44 H44            1.4357    -2.1198     0.1729 H       
  45 H45           -0.3261    -1.9052     0.3085 H       
  46 H46           -3.5999    -2.0064    -2.0790 H       
  47 H47           -5.1933    -1.5606    -0.2600 H       
  48 H48           -2.3208     0.9203     1.6856 H       
@<TRIPOS>BOND
   1    1    2 2
   2    1   10 1
   3    2    3 1
   4    2   21 1
   5    3    4 am
   6    3   20 1
   7    4    5 1
   8    4   11 2
   9    5    6 ar
  10    5   10 ar
  11    6    7 ar
  12    6   29 1
  13    7    8 ar
  14    7   13 1
  15    8    9 ar
  16    8   30 1
  17    9   10 ar
  18    9   31 1
  19   12   13 1
  20   12   17 1
  21   12   18 1
  22   12   32 1
  23   13   14 1
  24   14   15 1
  25   14   33 1
  26   14   34 1
  27   15   16 1
  28   15   18 1
  29   15   35 1
  30   16   17 1
  31   16   19 1
  32   17   36 1
  33   17   37 1
  34   18   38 1
  35   18   39 1
  36   19   40 1
  37   19   41 1
  38   19   42 1
  39   20   43 1
  40   20   44 1
  41   20   45 1
  42   21   22 ar
  43   21   26 ar
  44   22   23 ar
  45   22   27 1
  46   23   24 ar
  47   23   46 1
  48   24   25 ar
  49   24   47 1
  50   25   26 ar
  51   25   28 1
  52   26   48 1

#	End of record

