#	Name: ASD01900620
#	Creating user name:	WinNT
#	Creation time:	15. 06. 2019 19:52

#	Modifying user name:	WinNT
#	Modification time:	15. 06. 2019 19:52

#	Program:	/corina/corina34_cracker 3.40 0067  02.08.2006

@<TRIPOS>MOLECULE
ASD01900620
  32   35    0    0    0
SMALL
NO_CHARGES


@<TRIPOS>ATOM
   1 C1            -0.0167     1.3827     0.0096 C.ar    
   2 C2             0.0021    -0.0041     0.0020 C.ar    
   3 C3             1.1974    -0.6916    -0.0131 C.ar    
   4 C4             2.3985     0.0065    -0.0209 C.ar    
   5 C5             2.3781     1.4105    -0.0132 C.ar    
   6 C6             1.1637     2.0939     0.0022 C.ar    
   7 O7             3.5788    -0.6470    -0.0352 O.3     
   8 C8             4.7560    -0.0027    -0.0426 C.2     
   9 C9             4.8477     1.3542    -0.0357 C.2     
  10 C10            3.6658     2.1328    -0.0216 C.2     
  11 O11            3.7093     3.3518    -0.0155 O.2     
  12 C12            6.0001    -0.7979    -0.0583 C.ar    
  13 N13            7.1785    -0.1683    -0.0657 N.ar    
  14 C14            8.3209    -0.8075    -0.0793 C.ar    
  15 C15            8.3460    -2.2139    -0.0866 C.ar    
  16 C16            7.1146    -2.9214    -0.0790 C.ar    
  17 C17            5.9207    -2.1816    -0.0592 C.ar    
  18 C18            9.5502    -2.9329    -0.1016 C.ar    
  19 C19            9.5203    -4.2952    -0.1085 C.ar    
  20 C20            8.3118    -4.9886    -0.1010 C.ar    
  21 C21            7.1222    -4.3245    -0.0865 C.ar    
  22 H22           -0.9606     1.9075     0.0170 H       
  23 H23           -0.9291    -0.5512     0.0084 H       
  24 H24            1.1998    -1.7716    -0.0186 H       
  25 H25            1.1478     3.1738     0.0081 H       
  26 H26            5.8152     1.8341    -0.0414 H       
  27 H27            9.2476    -0.2529    -0.0852 H       
  28 H28            4.9625    -2.6797    -0.0525 H       
  29 H29           10.4952    -2.4100    -0.1079 H       
  30 H30           10.4488    -4.8466    -0.1205 H       
  31 H31            8.3181    -6.0685    -0.1071 H       
  32 H32            6.1923    -4.8737    -0.0804 H       
@<TRIPOS>BOND
   1    1    2 ar
   2    1    6 ar
   3    1   22 1
   4    2    3 ar
   5    2   23 1
   6    3    4 ar
   7    3   24 1
   8    4    5 ar
   9    4    7 1
  10    5    6 ar
  11    5   10 1
  12    6   25 1
  13    7    8 1
  14    8    9 2
  15    8   12 1
  16    9   10 1
  17    9   26 1
  18   10   11 2
  19   12   13 ar
  20   12   17 ar
  21   13   14 ar
  22   14   15 ar
  23   14   27 1
  24   15   16 ar
  25   15   18 ar
  26   16   17 ar
  27   16   21 ar
  28   17   28 1
  29   18   19 ar
  30   18   29 1
  31   19   20 ar
  32   19   30 1
  33   20   21 ar
  34   20   31 1
  35   21   32 1

#	End of record

