#	Name: ASD01001231
#	Creating user name:	WinNT
#	Creation time:	15. 06. 2019 18:55

#	Modifying user name:	WinNT
#	Modification time:	15. 06. 2019 18:55

#	Program:	/corina/corina34_cracker 3.40 0067  02.08.2006

@<TRIPOS>MOLECULE
ASD01001231
  43   47    0    0    0
SMALL
NO_CHARGES


@<TRIPOS>ATOM
   1 C1             0.0224     0.4309    -0.3684 C.ar    
   2 C2            -0.1831    -0.9384    -0.4491 C.ar    
   3 C3            -1.4473    -1.4999    -0.3996 C.ar    
   4 C4            -2.5239    -0.6267    -0.2632 C.ar    
   5 C5            -2.3148     0.7732    -0.1798 C.ar    
   6 C6            -1.0293     1.3211    -0.2274 C.ar    
   7 N7            -3.8710    -0.8406    -0.1851 N.pl3   
   8 C8            -4.5211     0.3568    -0.0496 C.2     
   9 C9            -3.6304     1.3710    -0.0441 C.2     
  10 C10           -6.0180     0.5529     0.0885 C.3     
  11 N11           -6.2515     2.0010     0.0273 N.am    
  12 C12           -5.3648     2.9932     0.6742 C.3     
  13 C13           -3.9631     2.8374     0.0725 C.3     
  14 C14           -7.2251     2.6787    -0.5838 C.2     
  15 N15           -7.0571     4.0051    -0.4844 N.am    
  16 C16           -5.9622     4.3159     0.2392 C.2     
  17 O17           -5.5425     5.4253     0.4902 O.2     
  18 O18           -8.1562     2.1544    -1.1629 O.2     
  19 C19           -7.9527     4.9951    -1.0876 C.3     
  20 C20           -6.4913     0.0080     1.4114 C.ar    
  21 C21           -6.0727     0.5957     2.5893 C.ar    
  22 C22           -6.5092     0.0938     3.8070 C.ar    
  23 C23           -7.3652    -0.9973     3.8381 C.ar    
  24 C24           -7.7809    -1.5816     2.6571 C.ar    
  25 C25           -7.3488    -1.0764     1.4450 C.ar    
  26 O26           -6.0985     0.6699     4.9673 O.3     
  27 F27            1.2846     0.9095    -0.4235 F       
  28 H28            0.6726    -1.5888    -0.5545 H       
  29 H29           -1.5926    -2.5681    -0.4642 H       
  30 H30           -0.8650     2.3867    -0.1649 H       
  31 H31           -4.3016    -1.7090    -0.2205 H       
  32 H32           -6.5378     0.0551    -0.7301 H       
  33 H33           -5.3512     2.8768     1.7579 H       
  34 H34           -3.2335     3.3257     0.7185 H       
  35 H35           -3.9387     3.2957    -0.9162 H       
  36 H36           -8.7570     4.4833    -1.6160 H       
  37 H37           -8.3756     5.6264    -0.3060 H       
  38 H38           -7.3920     5.6124    -1.7895 H       
  39 H39           -5.4060     1.4449     2.5625 H       
  40 H40           -7.7060    -1.3901     4.7846 H       
  41 H41           -8.4473    -2.4311     2.6807 H       
  42 H42           -7.6749    -1.5345     0.5229 H       
  43 H43           -6.6746     1.3815     5.2785 H       
@<TRIPOS>BOND
   1    1    2 ar
   2    1   27 1
   3    1    6 ar
   4    2    3 ar
   5    2   28 1
   6    3    4 ar
   7    3   29 1
   8    4    5 ar
   9    4    7 1
  10    5    6 ar
  11    5    9 1
  12    6   30 1
  13    7    8 1
  14    7   31 1
  15    8    9 2
  16    8   10 1
  17    9   13 1
  18   10   11 1
  19   10   20 1
  20   10   32 1
  21   11   12 1
  22   11   14 am
  23   12   13 1
  24   12   16 1
  25   12   33 1
  26   13   34 1
  27   13   35 1
  28   14   15 am
  29   14   18 2
  30   15   16 am
  31   15   19 1
  32   16   17 2
  33   19   36 1
  34   19   37 1
  35   19   38 1
  36   20   21 ar
  37   20   25 ar
  38   21   22 ar
  39   21   39 1
  40   22   23 ar
  41   22   26 1
  42   23   24 ar
  43   23   40 1
  44   24   25 ar
  45   24   41 1
  46   25   42 1
  47   26   43 1

#	End of record

