#	Name: ASD03430386
#	Creating user name:	WinNT
#	Creation time:	15. 06. 2019 20:41

#	Modifying user name:	WinNT
#	Modification time:	15. 06. 2019 20:41

#	Program:	/corina/corina34_cracker 3.40 0067  02.08.2006

@<TRIPOS>MOLECULE
ASD03430386
  57   61    0    0    0
SMALL
NO_CHARGES


@<TRIPOS>ATOM
   1 N1            -0.0157     1.4932     0.4902 N.am    
   2 C2             0.0409     0.2263     0.9344 C.2     
   3 C3             1.4804    -0.0488     1.3139 C.3     
   4 C4             2.1944     1.2486     1.0120 C.ar    
   5 C5             3.5067     1.6460     1.1357 C.ar    
   6 C6             3.8770     2.9284     0.7700 C.ar    
   7 C7             2.9262     3.8060     0.2815 C.ar    
   8 C8             1.6106     3.4104     0.1566 C.ar    
   9 C9             1.2302     2.1206     0.5228 C.ar    
  10 O10           -0.8869    -0.5506     1.0164 O.2     
  11 C11            1.5858    -0.3807     2.7801 C.ar    
  12 C12            2.1213    -1.5967     3.1801 C.ar    
  13 C13            2.2169    -1.8992     4.5304 C.ar    
  14 C14            1.7789    -0.9895     5.4736 C.ar    
  15 C15            1.2453     0.2211     5.0725 C.ar    
  16 C16            1.1546     0.5276     3.7271 C.ar    
  17 C17            0.7675     1.2111     6.1034 C.3     
  18 C18            1.8824    -1.3175     6.9409 C.3     
  19 O19            2.5510    -2.4899     2.2504 O.3     
  20 C20           -1.2434     2.1395     0.0197 C.3     
  21 C21           -0.9991     2.7578    -1.3327 C.ar    
  22 C22           -1.5150     4.0065    -1.6251 C.ar    
  23 C23           -1.2909     4.5737    -2.8657 C.ar    
  24 C24           -0.5505     3.8925    -3.8136 C.ar    
  25 C25           -0.0338     2.6442    -3.5208 C.ar    
  26 C26           -0.2542     2.0788    -2.2788 C.ar    
  27 C27           -2.3417     1.1132    -0.0882 C.ar    
  28 C28           -3.4804     1.2356     0.6859 C.ar    
  29 C29           -4.4879     0.2942     0.5870 C.ar    
  30 C30           -4.3568    -0.7692    -0.2864 C.ar    
  31 C31           -3.2185    -0.8911    -1.0612 C.ar    
  32 C32           -2.2129     0.0527    -0.9654 C.ar    
  33 H33            1.8871    -0.8585     0.7079 H       
  34 H34            4.2463     0.9579     1.5179 H       
  35 H35            4.9056     3.2431     0.8662 H       
  36 H36            3.2153     4.8068    -0.0034 H       
  37 H37            0.8740     4.1015    -0.2257 H       
  38 H38            2.6329    -2.8451     4.8442 H       
  39 H39            0.7419     1.4761     3.4164 H       
  40 H40            1.5888     1.8719     6.3806 H       
  41 H41           -0.0498     1.8013     5.6890 H       
  42 H42            0.4179     0.6760     6.9864 H       
  43 H43            2.8441    -0.9748     7.3228 H       
  44 H44            1.0781    -0.8193     7.4822 H       
  45 H45            1.8000    -2.3956     7.0789 H       
  46 H46            3.4806    -2.3860     2.0052 H       
  47 H47           -1.5392     2.9153     0.7259 H       
  48 H48           -2.0935     4.5388    -0.8845 H       
  49 H49           -1.6946     5.5490    -3.0944 H       
  50 H50           -0.3760     4.3353    -4.7831 H       
  51 H51            0.5444     2.1118    -4.2615 H       
  52 H52            0.1526     1.1052    -2.0487 H       
  53 H53           -3.5828     2.0664     1.3683 H       
  54 H54           -5.3772     0.3894     1.1923 H       
  55 H55           -5.1436    -1.5051    -0.3632 H       
  56 H56           -3.1159    -1.7221    -1.7433 H       
  57 H57           -1.3252    -0.0405    -1.5734 H       
@<TRIPOS>BOND
   1    1    2 am
   2    1    9 1
   3    1   20 1
   4    2    3 1
   5    2   10 2
   6    3    4 1
   7    3   11 1
   8    3   33 1
   9    4    5 ar
  10    4    9 ar
  11    5    6 ar
  12    5   34 1
  13    6    7 ar
  14    6   35 1
  15    7    8 ar
  16    7   36 1
  17    8    9 ar
  18    8   37 1
  19   11   12 ar
  20   11   16 ar
  21   12   13 ar
  22   12   19 1
  23   13   14 ar
  24   13   38 1
  25   14   15 ar
  26   14   18 1
  27   15   16 ar
  28   15   17 1
  29   16   39 1
  30   17   40 1
  31   17   41 1
  32   17   42 1
  33   18   43 1
  34   18   44 1
  35   18   45 1
  36   19   46 1
  37   20   21 1
  38   20   27 1
  39   20   47 1
  40   21   22 ar
  41   21   26 ar
  42   22   23 ar
  43   22   48 1
  44   23   24 ar
  45   23   49 1
  46   24   25 ar
  47   24   50 1
  48   25   26 ar
  49   25   51 1
  50   26   52 1
  51   27   28 ar
  52   27   32 ar
  53   28   29 ar
  54   28   53 1
  55   29   30 ar
  56   29   54 1
  57   30   31 ar
  58   30   55 1
  59   31   32 ar
  60   31   56 1
  61   32   57 1

#	End of record

