#	Name: ASD00960004
#	Creating user name:	WinNT
#	Creation time:	15. 06. 2019 18:53

#	Modifying user name:	WinNT
#	Modification time:	15. 06. 2019 18:53

#	Program:	/corina/corina34_cracker 3.40 0067  02.08.2006

@<TRIPOS>MOLECULE
ASD00960004
  11   11    0    0    0
SMALL
NO_CHARGES


@<TRIPOS>ATOM
   1 N1            -0.0161     1.3335     0.0094 N.2     
   2 C2             0.0021    -0.0041     0.0020 C.2     
   3 C3             1.3049    -0.3707    -0.0124 C.2     
   4 N4             2.0198     0.7781    -0.0130 N.pl3   
   5 N5             1.1952     1.7664     0.0001 N.2     
   6 C6             1.8497    -1.7757    -0.0251 C.3     
   7 H7            -0.8544    -0.6620     0.0070 H       
   8 H8             2.9874     0.8454    -0.0216 H       
   9 H9             1.9712    -2.1090    -1.0558 H       
  10 H10            2.8157    -1.7955     0.4794 H       
  11 H11            1.1562    -2.4390     0.4918 H       
@<TRIPOS>BOND
   1    1    2 1
   2    1    5 2
   3    2    3 2
   4    2    7 1
   5    3    4 1
   6    3    6 1
   7    4    5 1
   8    4    8 1
   9    6    9 1
  10    6   10 1
  11    6   11 1

#	End of record

