#	Name: ASD00844674
#	Creating user name:	WinNT
#	Creation time:	15. 06. 2019 18:50

#	Modifying user name:	WinNT
#	Modification time:	15. 06. 2019 18:50

#	Program:	/corina/corina34_cracker 3.40 0067  02.08.2006

@<TRIPOS>MOLECULE
ASD00844674
  91   96    0    0    0
SMALL
NO_CHARGES


@<TRIPOS>ATOM
   1 C1             0.7849     1.2406    -0.4456 C.ar    
   2 C2             1.0199    -0.1033    -0.6963 C.ar    
   3 C3             0.9062    -1.0285     0.3314 C.ar    
   4 C4             0.5596    -0.6095     1.6011 C.ar    
   5 C5             0.3254     0.7307     1.8484 C.ar    
   6 C6             0.4385     1.6546     0.8262 C.ar    
   7 C7             1.1603    -2.4894     0.0625 C.3     
   8 C8             0.8426    -3.3179     1.2891 C.2     
   9 C9             0.3341    -2.9646    -1.1344 C.3     
  10 C10           -1.1221    -2.6622    -0.8914 C.2     
  11 N11           -2.0541    -3.0890    -1.7664 N.am    
  12 O12           -1.4553    -2.0349     0.0917 O.2     
  13 C13           -3.4664    -2.7091    -1.6101 C.3     
  14 C14           -3.9678    -2.1408    -2.9420 C.3     
  15 N15           -3.6997    -3.1075    -4.0151 N.3     
  16 C16           -2.2575    -3.3299    -4.1838 C.3     
  17 C17           -1.6850    -3.9419    -2.9063 C.3     
  18 C18           -4.3172    -2.6780    -5.2769 C.3     
  19 C19           -3.9143    -3.6406    -6.3975 C.3     
  20 C20           -4.6090    -3.2236    -7.6958 C.3     
  21 N21           -6.0646    -3.2495    -7.5038 N.3     
  22 C22           -6.4801    -2.2982    -6.4651 C.3     
  23 C23           -5.8413    -2.6875    -5.1300 C.3     
  24 C24           -6.7670    -2.9891    -8.7674 C.3     
  25 O25           -0.2373    -3.4148     1.8326 O.2     
  26 N26            1.9807    -3.9262     1.6622 N.am    
  27 C27            2.6329    -2.7363    -0.1748 C.ar    
  28 C28            3.0490    -3.6087     0.8281 C.ar    
  29 C29            3.5121    -2.2782    -1.1230 C.ar    
  30 C30            4.8493    -2.6892    -1.0887 C.ar    
  31 C31            5.2749    -3.5661    -0.0835 C.ar    
  32 C32            4.3814    -4.0204     0.8628 C.ar    
  33 F33            6.5637    -3.9689    -0.0417 F       
  34 C34            1.7588    -6.5699     2.3943 C.ar    
  35 C35            2.7886    -7.3714     1.9382 C.ar    
  36 C36            0.4626    -7.0500     2.4064 C.ar    
  37 C37            0.1961    -8.3317     1.9624 C.ar    
  38 C38            1.2258    -9.1331     1.5059 C.ar    
  39 C39            2.5220    -8.6530     1.4938 C.ar    
  40 H40            1.0176   -10.1344     1.1590 H       
  41 H41            3.8013    -6.9963     1.9288 H       
  42 C42           -8.2606    -3.2677    -8.5875 C.3     
  43 C43           -8.9922    -2.9966    -9.9036 C.3     
  44 C44            5.7750    -2.2172    -2.0741 C.1     
  45 N45            6.5093    -1.8427    -2.8557 N.1     
  46 S46            2.0995    -4.9388     2.9671 S.o2    
  47 O47            3.4651    -4.9285     3.3600 O.2     
  48 O48            1.0361    -4.5908     3.8431 O.2     
  49 O49            1.3604    -0.5131    -1.9465 O.3     
  50 C50            1.3889     0.4832    -2.9705 C.3     
  51 C51            1.8702    -0.1449    -4.2800 C.3     
  52 F52            3.1172    -0.7462    -4.0781 F       
  53 F53            0.9494    -1.1107    -4.7000 F       
  54 H54            0.8771     1.9633    -1.2429 H       
  55 H55            0.4710    -1.3293     2.4014 H       
  56 H56            0.0538     1.0563     2.8417 H       
  57 H57            0.2551     2.7008     1.0218 H       
  58 H58            0.6673    -2.4474    -2.0342 H       
  59 H59            0.4656    -4.0389    -1.2631 H       
  60 H60           -4.0542    -3.5870    -1.3421 H       
  61 H61           -3.5579    -1.9520    -0.8313 H       
  62 H62           -5.0402    -1.9565    -2.8781 H       
  63 H63           -3.4499    -1.2061    -3.1566 H       
  64 H64           -2.0895    -4.0080    -5.0205 H       
  65 H65           -1.7633    -2.3786    -4.3812 H       
  66 H66           -0.5994    -4.0025    -2.9839 H       
  67 H67           -2.1006    -4.9389    -2.7597 H       
  68 H68           -3.9804    -1.6710    -5.5231 H       
  69 H69           -2.8337    -3.6062    -6.5357 H       
  70 H70           -4.2159    -4.6540    -6.1326 H       
  71 H71           -4.2963    -2.2154    -7.9674 H       
  72 H72           -4.3354    -3.9155    -8.4924 H       
  73 H73           -6.1587    -1.2943    -6.7424 H       
  74 H74           -7.5656    -2.3180    -6.3678 H       
  75 H75           -6.1732    -3.6860    -4.8452 H       
  76 H76           -6.1374    -1.9723    -4.3626 H       
  77 H77           -6.6237    -1.9475    -9.0549 H       
  78 H78           -6.3674    -3.6391    -9.5459 H       
  79 H79            3.1730    -1.6023    -1.8941 H       
  80 H80            4.7149    -4.6968     1.6358 H       
  81 H81           -0.3419    -6.4239     2.7630 H       
  82 H82           -0.8165    -8.7070     1.9724 H       
  83 H83            3.3265    -9.2792     1.1375 H       
  84 H84           -8.4039    -4.3093    -8.3000 H       
  85 H85           -8.6602    -2.6177    -7.8090 H       
  86 H86           -8.8489    -1.9550   -10.1910 H       
  87 H87           -8.5926    -3.6465   -10.6820 H       
  88 H88          -10.0563    -3.1950    -9.7754 H       
  89 H89            0.3874     0.8903    -3.1094 H       
  90 H90            2.0694     1.2836    -2.6798 H       
  91 H91            1.9591     0.6285    -5.0429 H       
@<TRIPOS>BOND
   1    1    2 ar
   2    1    6 ar
   3    1   54 1
   4    2    3 ar
   5    2   49 1
   6    3    4 ar
   7    3    7 1
   8    4    5 ar
   9    4   55 1
  10    5    6 ar
  11    5   56 1
  12    6   57 1
  13    7    8 1
  14    7    9 1
  15    7   27 1
  16    8   25 2
  17    8   26 am
  18    9   10 1
  19    9   58 1
  20    9   59 1
  21   10   11 am
  22   10   12 2
  23   11   13 1
  24   11   17 1
  25   13   14 1
  26   13   60 1
  27   13   61 1
  28   14   15 1
  29   14   62 1
  30   14   63 1
  31   15   16 1
  32   15   18 1
  33   16   17 1
  34   16   64 1
  35   16   65 1
  36   17   66 1
  37   17   67 1
  38   18   19 1
  39   18   23 1
  40   18   68 1
  41   19   20 1
  42   19   69 1
  43   19   70 1
  44   20   21 1
  45   20   71 1
  46   20   72 1
  47   21   22 1
  48   21   24 1
  49   22   23 1
  50   22   73 1
  51   22   74 1
  52   23   75 1
  53   23   76 1
  54   24   42 1
  55   24   77 1
  56   24   78 1
  57   26   46 am
  58   26   28 1
  59   27   28 ar
  60   27   29 ar
  61   28   32 ar
  62   29   30 ar
  63   29   79 1
  64   30   31 ar
  65   30   44 1
  66   31   32 ar
  67   31   33 1
  68   32   80 1
  69   34   35 ar
  70   34   36 ar
  71   34   46 1
  72   35   41 1
  73   35   39 ar
  74   36   37 ar
  75   36   81 1
  76   37   38 ar
  77   37   82 1
  78   38   39 ar
  79   38   40 1
  80   39   83 1
  81   42   43 1
  82   42   84 1
  83   42   85 1
  84   43   86 1
  85   43   87 1
  86   43   88 1
  87   44   45 3
  88   46   47 2
  89   46   48 2
  90   49   50 1
  91   50   51 1
  92   50   89 1
  93   50   90 1
  94   51   52 1
  95   51   53 1
  96   51   91 1

#	End of record

