#	Name: ASD09116384
#	Creating user name:	WinNT
#	Creation time:	15. 06. 2019 21:21

#	Modifying user name:	WinNT
#	Modification time:	15. 06. 2019 21:21

#	Program:	/corina/corina34_cracker 3.40 0067  02.08.2006

@<TRIPOS>MOLECULE
ASD09116384
  79   85    0    0    0
SMALL
NO_CHARGES


@<TRIPOS>ATOM
   1 N1            -0.0590     1.5277    -0.5291 N.2     
   2 N2            -0.0822     0.2491    -1.1091 N.pl3   
   3 C3             1.1948     1.9114    -0.4984 C.2     
   4 N4             1.9589     0.9475    -1.0255 N.2     
   5 C5             1.2029    -0.0626    -1.3990 C.2     
   6 N6             1.6431    -1.2350    -1.9832 N.pl3   
   7 C7            -1.2077    -0.5436    -1.3410 C.ar    
   8 N8             1.6572     3.1282     0.0026 N.pl3   
   9 C9             3.0333     3.3745     0.0836 C.ar    
  10 C10            3.5138     4.6735    -0.0238 C.ar    
  11 C11            3.9167     2.3211     0.2767 C.ar    
  12 C12            5.2746     2.5633     0.3572 C.ar    
  13 C13            5.7566     3.8595     0.2445 C.ar    
  14 C14            4.8720     4.9162     0.0562 C.ar    
  15 N15           -1.1864    -1.4607    -2.2967 N.ar    
  16 N16           -2.1983    -2.2096    -2.5570 N.ar    
  17 C17           -3.3306    -2.1060    -1.8800 C.ar    
  18 C18           -3.4383    -1.1799    -0.8386 C.ar    
  19 C19           -2.3546    -0.3737    -0.5613 C.ar    
  20 C20           -4.5156    -2.9299    -2.2134 C.ar    
  21 C21           -5.7517    -2.3010    -2.3712 C.ar    
  22 C22           -5.8379    -0.8038    -2.2547 C.3     
  23 C23           -5.7907    -0.3552    -0.7966 C.3     
  24 C24           -4.7035    -1.1078    -0.0341 C.3     
  25 C25           -4.4120    -4.3082    -2.3649 C.ar    
  26 C26           -5.5405    -5.0511    -2.6531 C.ar    
  27 C27           -6.7672    -4.4266    -2.7877 C.ar    
  28 C28           -6.8730    -3.0537    -2.6466 C.ar    
  29 N29            7.1339     4.1047     0.3266 N.3     
  30 C30            7.6544     3.7469     1.6535 C.3     
  31 C31            7.8603     3.3886    -0.7314 C.3     
  32 C32            9.3469     3.7446    -0.6565 C.3     
  33 N33            9.8674     3.3868     0.6704 N.3     
  34 C34            9.1410     4.1028     1.7284 C.3     
  35 C35           11.3111     3.6438     0.7565 C.3     
  36 F36            5.3406     6.1785    -0.0537 F       
  37 C37           11.7938     3.3787     2.1852 C.3     
  38 C38           13.3081     3.5891     2.2541 C.3     
  39 N39           13.9736     2.6761     1.3161 N.3     
  40 C40           13.5614     2.9433    -0.0677 C.3     
  41 C41           12.0547     2.7136    -0.2060 C.3     
  42 C42           15.4342     2.7519     1.4544 C.3     
  43 H43            2.5891    -1.3674    -2.1521 H       
  44 H44            1.0061    -1.9257    -2.2244 H       
  45 H45            1.0256     3.8039     0.2949 H       
  46 H46            2.8262     5.4935    -0.1700 H       
  47 H47            3.5423     1.3119     0.3645 H       
  48 H48            5.9611     1.7433     0.5082 H       
  49 H49           -2.3935     0.3668     0.2239 H       
  50 H50           -5.0027    -0.3556    -2.7929 H       
  51 H51           -6.7722    -0.4646    -2.7020 H       
  52 H52           -5.5823     0.7140    -0.7567 H       
  53 H53           -6.7563    -0.5496    -0.3299 H       
  54 H54           -5.0502    -2.1187     0.1800 H       
  55 H55           -4.5022    -0.5924     0.9050 H       
  56 H56           -3.4540    -4.7954    -2.2581 H       
  57 H57           -5.4646    -6.1217    -2.7739 H       
  58 H58           -7.6475    -5.0135    -3.0042 H       
  59 H59           -7.8340    -2.5724    -2.7521 H       
  60 H60            7.1092     4.2992     2.4190 H       
  61 H61            7.5279     2.6767     1.8173 H       
  62 H62            7.7362     2.3144    -0.5947 H       
  63 H63            7.4652     3.6797    -1.7047 H       
  64 H64            9.8921     3.1923    -1.4220 H       
  65 H65            9.4733     4.8147    -0.8203 H       
  66 H66            9.2651     5.1771     1.5917 H       
  67 H67            9.5360     3.8118     2.7017 H       
  68 H68           11.5129     4.6815     0.4905 H       
  69 H69           11.2992     4.0674     2.8701 H       
  70 H70           11.5559     2.3525     2.4651 H       
  71 H71           13.5442     4.6193     1.9874 H       
  72 H72           13.6571     3.3872     3.2668 H       
  73 H73           13.7963     3.9765    -0.3236 H       
  74 H74           14.0944     2.2723    -0.7414 H       
  75 H75           11.8209     1.6769     0.0363 H       
  76 H76           11.7465     2.9271    -1.2295 H       
  77 H77           15.7177     2.4770     2.4703 H       
  78 H78           15.9021     2.0659     0.7483 H       
  79 H79           15.7664     3.7692     1.2471 H       
@<TRIPOS>BOND
   1    1    2 1
   2    1    3 2
   3    2    7 1
   4    2    5 1
   5    3    4 1
   6    3    8 1
   7    4    5 2
   8    5    6 1
   9    6   43 1
  10    6   44 1
  11    7   15 ar
  12    7   19 ar
  13    8    9 1
  14    8   45 1
  15    9   10 ar
  16    9   11 ar
  17   10   14 ar
  18   10   46 1
  19   11   12 ar
  20   11   47 1
  21   12   13 ar
  22   12   48 1
  23   13   14 ar
  24   13   29 1
  25   14   36 1
  26   15   16 ar
  27   16   17 ar
  28   17   18 ar
  29   17   20 1
  30   18   19 ar
  31   18   24 1
  32   19   49 1
  33   20   21 ar
  34   20   25 ar
  35   21   22 1
  36   21   28 ar
  37   22   23 1
  38   22   50 1
  39   22   51 1
  40   23   24 1
  41   23   52 1
  42   23   53 1
  43   24   54 1
  44   24   55 1
  45   25   26 ar
  46   25   56 1
  47   26   27 ar
  48   26   57 1
  49   27   28 ar
  50   27   58 1
  51   28   59 1
  52   29   31 1
  53   29   30 1
  54   30   34 1
  55   30   60 1
  56   30   61 1
  57   31   32 1
  58   31   62 1
  59   31   63 1
  60   32   33 1
  61   32   64 1
  62   32   65 1
  63   33   34 1
  64   33   35 1
  65   34   66 1
  66   34   67 1
  67   35   37 1
  68   35   41 1
  69   35   68 1
  70   37   38 1
  71   37   69 1
  72   37   70 1
  73   38   39 1
  74   38   71 1
  75   38   72 1
  76   39   40 1
  77   39   42 1
  78   40   41 1
  79   40   73 1
  80   40   74 1
  81   41   75 1
  82   41   76 1
  83   42   77 1
  84   42   78 1
  85   42   79 1

#	End of record

