#	Name: ASD09116075
#	Creating user name:	WinNT
#	Creation time:	15. 06. 2019 21:20

#	Modifying user name:	WinNT
#	Modification time:	15. 06. 2019 21:20

#	Program:	/corina/corina34_cracker 3.40 0067  02.08.2006

@<TRIPOS>MOLECULE
ASD09116075
  63   67    0    0    0
SMALL
NO_CHARGES


@<TRIPOS>ATOM
   1 C1             0.0329     1.3917     0.3279 C.ar    
   2 N2             0.0385     0.0001     0.2592 N.pl3   
   3 N3             1.1613    -0.8316     0.1190 N.2     
   4 C4             0.7228    -2.0671     0.0972 C.2     
   5 N5            -0.6102    -2.0621     0.2156 N.2     
   6 C6            -1.0417    -0.8236     0.3205 C.2     
   7 N7            -2.3587    -0.4297     0.4583 N.pl3   
   8 N8             1.5188    -3.2052    -0.0295 N.pl3   
   9 C9             1.2393     2.1084     0.2556 C.ar    
  10 N10           -1.1136     2.0428     0.4674 N.ar    
  11 C11           -1.1317     3.3581     0.5290 C.ar    
  12 N12           -0.0209     4.0560     0.4528 N.ar    
  13 C13            1.1673     3.4824     0.3215 C.ar    
  14 C14            0.9431    -4.4775     0.0747 C.ar    
  15 C15            1.4967    -5.5487    -0.6142 C.ar    
  16 C16            0.9293    -6.8033    -0.5111 C.ar    
  17 C17           -0.1953    -6.9937     0.2811 C.ar    
  18 C18           -0.7489    -5.9226     0.9700 C.ar    
  19 C19           -0.1782    -4.6691     0.8714 C.ar    
  20 N20           -0.7710    -8.2653     0.3848 N.3     
  21 C21           -1.9447    -8.2415     1.2688 C.3     
  22 C22            2.3795     4.3586     0.2330 C.3     
  23 C23            3.1324     4.4538     1.5508 C.3     
  24 C24            3.1210     3.1560     2.3505 C.3     
  25 C25            4.2021     2.4130     1.5788 C.3     
  26 C26            3.8898     1.9249     0.1696 C.3     
  27 C27            2.4980     1.3068     0.1134 C.3     
  28 C28            0.2136    -9.2531     0.8480 C.3     
  29 C29           -0.4320   -10.6405     0.8718 C.3     
  30 N30           -1.6057   -10.6167     1.7559 N.3     
  31 C31           -2.5903    -9.6290     1.2927 C.3     
  32 C32           -2.2099   -11.9512     1.8648 C.3     
  33 H33           -3.0638    -1.0954     0.4846 H       
  34 H34           -2.5782     0.5124     0.5289 H       
  35 H35            2.4713    -3.1155    -0.1897 H       
  36 H36           -2.0746     3.8695     0.6466 H       
  37 H37            2.3709    -5.4004    -1.2309 H       
  38 H38            1.3598    -7.6363    -1.0469 H       
  39 H39           -1.6237    -6.0707     1.5858 H       
  40 H40           -0.6085    -3.8362     1.4074 H       
  41 H41           -1.6349    -7.9672     2.2772 H       
  42 H42           -2.6645    -7.5118     0.8980 H       
  43 H43            3.0312     4.0325    -0.5655 H       
  44 H44            2.0379     5.3742    -0.0295 H       
  45 H45            4.1666     4.7355     1.3468 H       
  46 H46            2.6786     5.2415     2.1574 H       
  47 H47            3.4137     3.3297     3.3923 H       
  48 H48            2.1552     2.6532     2.3095 H       
  49 H49            5.0863     3.0572     1.5260 H       
  50 H50            4.4959     1.5402     2.1760 H       
  51 H51            3.9997     2.7186    -0.5590 H       
  52 H52            4.6235     1.1432    -0.0953 H       
  53 H53            2.4694     0.5314     0.8895 H       
  54 H54            2.4289     0.7694    -0.8406 H       
  55 H55            1.0673    -9.2608     0.1704 H       
  56 H56            0.5479    -8.9902     1.8516 H       
  57 H57           -0.7418   -10.9148    -0.1366 H       
  58 H58            0.2878   -11.3702     1.2427 H       
  59 H59           -3.4441    -9.6212     1.9703 H       
  60 H60           -2.9246    -9.8918     0.2891 H       
  61 H61           -1.4788   -12.6489     2.2733 H       
  62 H62           -3.0763   -11.9051     2.5246 H       
  63 H63           -2.5231   -12.2900     0.8772 H       
@<TRIPOS>BOND
   1    1    2 1
   2    1    9 ar
   3    1   10 ar
   4    2    3 1
   5    2    6 1
   6    3    4 2
   7    4    5 1
   8    4    8 1
   9    5    6 2
  10    6    7 1
  11    7   33 1
  12    7   34 1
  13    8   14 1
  14    8   35 1
  15    9   13 ar
  16    9   27 1
  17   10   11 ar
  18   11   12 ar
  19   11   36 1
  20   12   13 ar
  21   13   22 1
  22   14   15 ar
  23   14   19 ar
  24   15   16 ar
  25   15   37 1
  26   16   17 ar
  27   16   38 1
  28   17   18 ar
  29   17   20 1
  30   18   19 ar
  31   18   39 1
  32   19   40 1
  33   20   21 1
  34   20   28 1
  35   21   31 1
  36   21   41 1
  37   21   42 1
  38   22   23 1
  39   22   43 1
  40   22   44 1
  41   23   24 1
  42   23   45 1
  43   23   46 1
  44   24   25 1
  45   24   47 1
  46   24   48 1
  47   25   26 1
  48   25   49 1
  49   25   50 1
  50   26   27 1
  51   26   51 1
  52   26   52 1
  53   27   53 1
  54   27   54 1
  55   28   29 1
  56   28   55 1
  57   28   56 1
  58   29   30 1
  59   29   57 1
  60   29   58 1
  61   30   31 1
  62   30   32 1
  63   31   59 1
  64   31   60 1
  65   32   61 1
  66   32   62 1
  67   32   63 1

#	End of record

