#	Name: ASD01150279
#	Creating user name:	WinNT
#	Creation time:	15. 06. 2019 19:03

#	Modifying user name:	WinNT
#	Modification time:	15. 06. 2019 19:03

#	Program:	/corina/corina34_cracker 3.40 0067  02.08.2006

@<TRIPOS>MOLECULE
ASD01150279
  57   60    0    0    0
SMALL
NO_CHARGES


@<TRIPOS>ATOM
   1 C1            -0.0158     1.3123     0.0093 C.2     
   2 N2             0.0021    -0.0041     0.0020 N.2     
   3 C3            -1.2465    -0.4792     0.0114 C.2     
   4 C4            -2.1134     0.6065     0.0255 C.2     
   5 N5            -1.3045     1.7452     0.0298 N.pl3   
   6 N6             1.0958     2.1231     0.0030 N.3     
   7 C7             2.3292     1.3253    -0.0137 C.3     
   8 C8             1.0586     3.0586    -1.1289 C.3     
   9 C9            -1.7378     3.0773     0.0433 C.ar    
  10 N10           -1.6127    -1.8196     0.0077 N.am    
  11 C11           -3.5223     0.5669     0.0387 C.2     
  12 O12           -4.2300     1.7170     0.0511 O.3     
  13 O13           -4.1013    -0.5044     0.0390 O.2     
  14 C14           -5.6543     1.6021     0.0642 C.3     
  15 C15           -6.0928     0.8360     1.3139 C.3     
  16 C16           -6.2786     2.9989     0.0770 C.3     
  17 C17           -6.1166     0.8483    -1.1845 C.3     
  18 C18           -1.4634     3.8871     1.1373 C.ar    
  19 C19           -1.8915     5.2001     1.1474 C.ar    
  20 C20           -2.5928     5.7085     0.0695 C.ar    
  21 C21           -2.8676     4.9046    -1.0215 C.ar    
  22 C22           -2.4376     3.5922    -1.0399 C.ar    
  23 C23           -0.6644    -2.7772    -0.0060 C.2     
  24 C24           -1.0538    -4.2024    -0.0100 C.ar    
  25 O25            0.5113    -2.4683    -0.0151 O.2     
  26 C26           -2.4255    -4.5361     0.0008 C.ar    
  27 C27           -2.8458    -5.8231    -0.0026 C.ar    
  28 C28           -1.8585    -6.8890    -0.0177 C.ar    
  29 C29           -0.4191    -6.5250    -0.0289 C.ar    
  30 C30           -0.0665    -5.1636    -0.0297 C.ar    
  31 N31           -1.8278    -8.1974    -0.0253 N.2     
  32 O32           -0.6707    -8.5673    -0.0381 O.3     
  33 N33            0.1737    -7.6940    -0.0409 N.2     
  34 H34            2.3464     0.7016    -0.9074 H       
  35 H35            3.1923     1.9909    -0.0183 H       
  36 H36            2.3639     0.6914     0.8724 H       
  37 H37            0.1697     3.6849    -1.0537 H       
  38 H38            1.9487     3.6875    -1.1100 H       
  39 H39            1.0299     2.4977    -2.0631 H       
  40 H40           -2.5508    -2.0661     0.0149 H       
  41 H41           -5.7635     1.3730     2.2034 H       
  42 H42           -7.1792     0.7484     1.3238 H       
  43 H43           -5.6481    -0.1591     1.3047 H       
  44 H44           -5.9662     3.5447    -0.8133 H       
  45 H45           -7.3650     2.9113     0.0869 H       
  46 H46           -5.9492     3.5359     0.9665 H       
  47 H47           -5.6719    -0.1468    -1.1936 H       
  48 H48           -7.2031     0.7607    -1.1745 H       
  49 H49           -5.8043     1.3941    -2.0748 H       
  50 H50           -0.9160     3.4905     1.9797 H       
  51 H51           -1.6787     5.8304     1.9982 H       
  52 H52           -2.9268     6.7355     0.0799 H       
  53 H53           -3.4158     5.3044    -1.8618 H       
  54 H54           -2.6525     2.9648    -1.8923 H       
  55 H55           -3.1591    -3.7437     0.0124 H       
  56 H56           -3.9007    -6.0544     0.0062 H       
  57 H57            0.9735    -4.8727    -0.0378 H       
@<TRIPOS>BOND
   1    1    2 2
   2    1    6 1
   3    1    5 1
   4    2    3 1
   5    3    4 2
   6    3   10 1
   7    4    5 1
   8    4   11 1
   9    5    9 1
  10    6    7 1
  11    6    8 1
  12    7   34 1
  13    7   35 1
  14    7   36 1
  15    8   37 1
  16    8   38 1
  17    8   39 1
  18    9   18 ar
  19    9   22 ar
  20   10   23 am
  21   10   40 1
  22   11   12 1
  23   11   13 2
  24   12   14 1
  25   14   15 1
  26   14   16 1
  27   14   17 1
  28   15   41 1
  29   15   42 1
  30   15   43 1
  31   16   44 1
  32   16   45 1
  33   16   46 1
  34   17   47 1
  35   17   48 1
  36   17   49 1
  37   18   19 ar
  38   18   50 1
  39   19   20 ar
  40   19   51 1
  41   20   21 ar
  42   20   52 1
  43   21   22 ar
  44   21   53 1
  45   22   54 1
  46   23   24 1
  47   23   25 2
  48   24   26 ar
  49   24   30 ar
  50   26   27 ar
  51   26   55 1
  52   27   28 ar
  53   27   56 1
  54   28   29 ar
  55   28   31 2
  56   29   30 ar
  57   29   33 2
  58   30   57 1
  59   31   32 1
  60   32   33 1

#	End of record

