#	Name: ASD02590018
#	Creating user name:	WinNT
#	Creation time:	15. 06. 2019 20:25

#	Modifying user name:	WinNT
#	Modification time:	15. 06. 2019 20:25

#	Program:	/corina/corina34_cracker 3.40 0067  02.08.2006

@<TRIPOS>MOLECULE
ASD02590018
  24   26    0    0    0
SMALL
NO_CHARGES


@<TRIPOS>ATOM
   1 C1            -0.0168     1.3871     0.0097 C.ar    
   2 C2             0.0021    -0.0041     0.0020 C.ar    
   3 C3            -1.1787    -0.7195     0.0094 C.ar    
   4 C4            -2.3940    -0.0490     0.0247 C.ar    
   5 C5            -2.4210     1.3570     0.0325 C.ar    
   6 C6            -1.2148     2.0698     0.0305 C.ar    
   7 N7            -3.7127    -0.4593     0.0350 N.pl3   
   8 C8            -4.4878     0.6700     0.0485 C.2     
   9 N9            -3.7226     1.7327     0.0469 N.2     
  10 C10           -5.9674     0.6867     0.0632 C.ar    
  11 C11           -6.6451     1.9049     0.0762 C.ar    
  12 C12           -8.0297     1.9041     0.0893 C.ar    
  13 C13           -8.6912     0.6848     0.0891 C.ar    
  14 C14           -7.9551    -0.4872     0.0758 C.ar    
  15 N15           -6.6391    -0.4589     0.0584 N.ar    
  16 F16            1.1466     2.0739     0.0022 F       
  17 F17            1.1835    -0.6591    -0.0132 F       
  18 F18           -1.2254     3.4207     0.0379 F       
  19 H19           -1.1568    -1.7993     0.0031 H       
  20 H20           -4.0306    -1.3757     0.0329 H       
  21 H21           -6.0980     2.8361     0.0763 H       
  22 H22           -8.5823     2.8320     0.0999 H       
  23 H23           -9.7706     0.6503     0.0996 H       
  24 H24           -8.4675    -1.4379     0.0756 H       
@<TRIPOS>BOND
   1    1    2 ar
   2    1   16 1
   3    1    6 ar
   4    2    3 ar
   5    2   17 1
   6    3    4 ar
   7    3   19 1
   8    4    5 ar
   9    4    7 1
  10    5    6 ar
  11    5    9 1
  12    6   18 1
  13    7    8 1
  14    7   20 1
  15    8    9 2
  16    8   10 1
  17   10   11 ar
  18   10   15 ar
  19   11   12 ar
  20   11   21 1
  21   12   13 ar
  22   12   22 1
  23   13   14 ar
  24   13   23 1
  25   14   15 ar
  26   14   24 1

#	End of record

