#	Name: ASD01850132
#	Creating user name:	WinNT
#	Creation time:	15. 06. 2019 19:38

#	Modifying user name:	WinNT
#	Modification time:	15. 06. 2019 19:38

#	Program:	/corina/corina34_cracker 3.40 0067  02.08.2006

@<TRIPOS>MOLECULE
ASD01850132
  52   56    0    0    0
SMALL
NO_CHARGES


@<TRIPOS>ATOM
   1 C1            -0.7587     0.8512     0.3299 C.3     
   2 C2             3.8739    -2.3982    -3.5733 C.ar    
   3 C3             4.2503    -3.7294    -3.5851 C.ar    
   4 C4             3.3161    -4.7181    -3.3530 C.ar    
   5 C5             1.9876    -4.3749    -3.1052 C.ar    
   6 C6             1.6198    -3.0239    -3.0767 C.ar    
   7 C7             2.5585    -2.0481    -3.3191 C.ar    
   8 C8             0.7792    -5.1882    -2.8504 C.2     
   9 N9            -0.2974    -4.4035    -2.8285 N.am    
  10 C10            0.1594    -2.9974    -2.7328 C.3     
  11 C11           -1.7615    -4.2609    -2.9348 C.3     
  12 C12           -1.9200    -3.0173    -3.8440 C.3     
  13 N13           -0.6512    -2.2675    -3.7138 N.am    
  14 C14           -0.3087    -1.1388    -4.3658 C.2     
  15 C15           -1.1962    -0.5922    -5.4127 C.ar    
  16 C16           -0.7688     0.4740    -6.2065 C.ar    
  17 C17           -1.6018     0.9817    -7.1837 C.ar    
  18 C18           -2.8621     0.4338    -7.3775 C.ar    
  19 C19           -3.2914    -0.6257    -6.5906 C.ar    
  20 C20           -2.4628    -1.1439    -5.6151 C.ar    
  21 O21            0.7307    -0.5705    -4.0925 O.2     
  22 C22           -0.0509    -2.4599    -1.3408 C.ar    
  23 O23            0.7695    -6.3925    -2.6859 O.2     
  24 C24            0.0026    -3.3147    -0.2556 C.ar    
  25 C25           -0.1899    -2.8244     1.0217 C.ar    
  26 C26           -0.4371    -1.4732     1.2147 C.ar    
  27 C27           -0.4903    -0.6173     0.1239 C.ar    
  28 C28           -0.2915    -1.1115    -1.1505 C.ar    
  29 F29           -4.5194    -1.1548    -6.7833 F       
  30 F30           -3.6738     0.9337    -8.3348 F       
  31 F31           -1.1895     2.0136    -7.9521 F       
  32 O32           -0.6272    -0.9885     2.4700 O.3     
  33 C33           -0.5589    -1.9273     3.5451 C.3     
  34 H34            0.1860     1.3777     0.4656 H       
  35 H35           -1.2760     1.2519    -0.5419 H       
  36 H36           -1.3803     0.9863     1.2151 H       
  37 H37            4.6093    -1.6292    -3.7584 H       
  38 H38            5.2792    -3.9958    -3.7771 H       
  39 H39            3.6136    -5.7563    -3.3637 H       
  40 H40            2.2692    -1.0076    -3.3108 H       
  41 H41           -2.2021    -5.1407    -3.4037 H       
  42 H42           -2.2042    -4.0818    -1.9549 H       
  43 H43           -2.0724    -3.3237    -4.8788 H       
  44 H44           -2.7558    -2.4057    -3.5040 H       
  45 H45            0.2116     0.9012    -6.0562 H       
  46 H46           -2.7975    -1.9687    -5.0034 H       
  47 H47            0.1946    -4.3667    -0.4064 H       
  48 H48           -0.1484    -3.4926     1.8691 H       
  49 H49           -0.3329    -0.4457    -1.9999 H       
  50 H50           -1.3226    -2.6929     3.4080 H       
  51 H51            0.4258    -2.3945     3.5576 H       
  52 H52           -0.7279    -1.4107     4.4899 H       
@<TRIPOS>BOND
   1    1   27 1
   2    1   34 1
   3    1   35 1
   4    1   36 1
   5    2    3 ar
   6    2    7 ar
   7    2   37 1
   8    3    4 ar
   9    3   38 1
  10    4    5 ar
  11    4   39 1
  12    5    6 ar
  13    5    8 1
  14    6    7 ar
  15    6   10 1
  16    7   40 1
  17    8    9 am
  18    8   23 2
  19    9   10 1
  20    9   11 1
  21   10   22 1
  22   10   13 1
  23   11   12 1
  24   11   41 1
  25   11   42 1
  26   12   13 1
  27   12   43 1
  28   12   44 1
  29   13   14 am
  30   14   15 1
  31   14   21 2
  32   15   16 ar
  33   15   20 ar
  34   16   17 ar
  35   16   45 1
  36   17   18 ar
  37   17   31 1
  38   18   19 ar
  39   18   30 1
  40   19   20 ar
  41   19   29 1
  42   20   46 1
  43   22   24 ar
  44   22   28 ar
  45   24   25 ar
  46   24   47 1
  47   25   26 ar
  48   25   48 1
  49   26   27 ar
  50   26   32 1
  51   27   28 ar
  52   28   49 1
  53   32   33 1
  54   33   50 1
  55   33   51 1
  56   33   52 1

#	End of record

