#	Name: ASD01812435
#	Creating user name:	WinNT
#	Creation time:	15. 06. 2019 19:28

#	Modifying user name:	WinNT
#	Modification time:	15. 06. 2019 19:28

#	Program:	/corina/corina34_cracker 3.40 0067  02.08.2006

@<TRIPOS>MOLECULE
ASD01812435
  52   56    0    0    0
SMALL
NO_CHARGES


@<TRIPOS>ATOM
   1 C1            -0.1185     1.4244    -0.2724 C.ar    
   2 C2            -0.1776     0.0798     0.0403 C.ar    
   3 C3             0.9882    -0.6514     0.1737 C.ar    
   4 C4             2.2133    -0.0410    -0.0071 C.ar    
   5 C5             2.2822     1.3123    -0.3233 C.ar    
   6 C6             1.1091     2.0458    -0.4537 C.ar    
   7 N7             3.5408     1.8942    -0.5047 N.3     
   8 C8             3.5000     3.3545    -0.3649 C.3     
   9 C9             2.3689     3.8994    -1.2467 C.3     
  10 O10            1.1330     3.3741    -0.7514 O.3     
  11 C11            4.5295     1.3055     0.4085 C.3     
  12 C12            5.8907     1.8813     0.1141 C.ar    
  13 C13            6.6648     1.3408    -0.8962 C.ar    
  14 C14            6.3607     2.9528     0.8511 C.ar    
  15 C15            7.6077     3.4830     0.5833 C.ar    
  16 C16            8.3894     2.9391    -0.4270 C.ar    
  17 C17            7.9127     1.8664    -1.1684 C.ar    
  18 N18            3.3720     6.1174    -1.6860 N.am    
  19 C19            2.3479     5.4046    -1.1765 C.2     
  20 O20            1.4093     5.9745    -0.6616 O.2     
  21 N21            9.6554     3.4750    -0.7011 N.pl3   
  22 C22           10.5138     3.0424    -1.6522 C.2     
  23 C23           11.6194     3.8205    -1.5935 C.2     
  24 C24           11.4316     4.7597    -0.5735 C.2     
  25 N25           10.2527     4.5574    -0.0423 N.2     
  26 C26            3.3034     7.5093    -1.7205 C.ar    
  27 N27            2.2949     8.1310    -1.1298 N.ar    
  28 C28            2.1923     9.4460    -1.1384 C.ar    
  29 C29            3.1414    10.2263    -1.7693 C.ar    
  30 C30            4.2147     9.6131    -2.4006 C.ar    
  31 C31            4.2975     8.2319    -2.3698 C.ar    
  32 H32           -1.0306     1.9926    -0.3804 H       
  33 H33           -1.1348    -0.4001     0.1809 H       
  34 H34            0.9405    -1.7018     0.4201 H       
  35 H35            3.1216    -0.6159     0.0975 H       
  36 H36            3.3114     3.6174     0.6759 H       
  37 H37            4.4511     3.7795    -0.6858 H       
  38 H38            2.5181     3.5805    -2.2783 H       
  39 H39            4.2538     1.5329     1.4382 H       
  40 H40            4.5544     0.2247     0.2692 H       
  41 H41            6.2933     0.5066    -1.4729 H       
  42 H42            5.7520     3.3757     1.6366 H       
  43 H43            7.9741     4.3201     1.1590 H       
  44 H44            8.5171     1.4433    -1.9571 H       
  45 H45            4.1568     5.6619    -2.0287 H       
  46 H46           10.3470     2.2232    -2.3358 H       
  47 H47           12.4928     3.7318    -2.2226 H       
  48 H48           12.1363     5.5231    -0.2785 H       
  49 H49            1.3552     9.9187    -0.6462 H       
  50 H50            3.0492    11.3024    -1.7716 H       
  51 H51            4.9700    10.2006    -2.9012 H       
  52 H52            5.1214     7.7223    -2.8470 H       
@<TRIPOS>BOND
   1    1    2 ar
   2    1    6 ar
   3    1   32 1
   4    2    3 ar
   5    2   33 1
   6    3    4 ar
   7    3   34 1
   8    4    5 ar
   9    4   35 1
  10    5    7 1
  11    5    6 ar
  12    6   10 1
  13    7   11 1
  14    7    8 1
  15    8    9 1
  16    8   36 1
  17    8   37 1
  18    9   10 1
  19    9   19 1
  20    9   38 1
  21   11   12 1
  22   11   39 1
  23   11   40 1
  24   12   14 ar
  25   12   13 ar
  26   13   17 ar
  27   13   41 1
  28   14   15 ar
  29   14   42 1
  30   15   16 ar
  31   15   43 1
  32   16   17 ar
  33   16   21 1
  34   17   44 1
  35   18   19 am
  36   18   26 1
  37   18   45 1
  38   19   20 2
  39   21   22 1
  40   21   25 1
  41   22   23 2
  42   22   46 1
  43   23   24 1
  44   23   47 1
  45   24   25 2
  46   24   48 1
  47   26   27 ar
  48   26   31 ar
  49   27   28 ar
  50   28   29 ar
  51   28   49 1
  52   29   30 ar
  53   29   50 1
  54   30   31 ar
  55   30   51 1
  56   31   52 1

#	End of record

