#	Name: ASD01911603
#	Creating user name:	WinNT
#	Creation time:	15. 06. 2019 19:58

#	Modifying user name:	WinNT
#	Modification time:	15. 06. 2019 19:58

#	Program:	/corina/corina34_cracker 3.40 0067  02.08.2006

@<TRIPOS>MOLECULE
ASD01911603
  38   40    0    0    0
SMALL
NO_CHARGES


@<TRIPOS>ATOM
   1 N1             0.0338     1.1488    -0.6955 N.am    
   2 C2             0.0021    -0.0041     0.0020 C.2     
   3 C3            -1.2506    -0.7543     0.1205 C.2     
   4 C4            -1.3861    -2.1134     0.0310 C.2     
   5 S5            -2.8470    -0.0658     0.4110 S.3     
   6 C6            -3.5482    -1.6811     0.3759 C.2     
   7 N7            -2.6014    -2.5625     0.1683 N.2     
   8 C8            -4.9366    -1.9843     0.5521 C.1     
   9 C9            -6.0748    -2.2329     0.6966 C.1     
  10 C10           -7.4632    -2.5361     0.8727 C.ar    
  11 C11           -7.9052    -3.8632     0.8244 C.ar    
  12 C12           -9.2451    -4.1465     0.9952 C.ar    
  13 C13          -10.1499    -3.1224     1.2131 C.ar    
  14 C14           -9.7200    -1.8078     1.2616 C.ar    
  15 C15           -8.3836    -1.5085     1.0996 C.ar    
  16 O16            1.0143    -0.4219     0.5334 O.2     
  17 C17           -1.1463     1.6041    -1.4430 C.3     
  18 C18            1.2471     1.9771    -0.7177 C.3     
  19 C19            0.8787     3.4026    -0.2946 C.3     
  20 C20           -0.2517     3.9194    -1.1875 C.3     
  21 C21           -1.4824     3.0346    -1.0101 C.3     
  22 Cl22          -6.7715    -5.1490     0.5500 Cl      
  23 O23           -0.5759     5.2608    -0.8166 O.3     
  24 H24           -0.5444    -2.7678    -0.1417 H       
  25 H25           -9.5883    -5.1699     0.9583 H       
  26 H26          -11.1972    -3.3503     1.3457 H       
  27 H27          -10.4327    -1.0143     1.4314 H       
  28 H28           -8.0503    -0.4820     1.1378 H       
  29 H29           -0.9312     1.5866    -2.5114 H       
  30 H30           -1.9905     0.9492    -1.2274 H       
  31 H31            1.9814     1.5682    -0.0238 H       
  32 H32            1.6617     1.9907    -1.7257 H       
  33 H33            0.5493     3.4001     0.7444 H       
  34 H34            1.7496     4.0496    -0.3992 H       
  35 H35            0.0696     3.8984    -2.2289 H       
  36 H36           -2.2960     3.4150    -1.6277 H       
  37 H37           -1.7865     3.0399     0.0366 H       
  38 H38           -1.2864     5.6534    -1.3422 H       
@<TRIPOS>BOND
   1    1    2 am
   2    1   18 1
   3    1   17 1
   4    2    3 1
   5    2   16 2
   6    3    4 2
   7    3    5 1
   8    4    7 1
   9    4   24 1
  10    5    6 1
  11    6    7 2
  12    6    8 1
  13    8    9 3
  14    9   10 1
  15   10   11 ar
  16   10   15 ar
  17   11   12 ar
  18   11   22 1
  19   12   13 ar
  20   12   25 1
  21   13   14 ar
  22   13   26 1
  23   14   15 ar
  24   14   27 1
  25   15   28 1
  26   17   21 1
  27   17   29 1
  28   17   30 1
  29   18   19 1
  30   18   31 1
  31   18   32 1
  32   19   20 1
  33   19   33 1
  34   19   34 1
  35   20   21 1
  36   20   23 1
  37   20   35 1
  38   21   36 1
  39   21   37 1
  40   23   38 1

#	End of record

