#	Name: ASD01010026
#	Creating user name:	WinNT
#	Creation time:	15. 06. 2019 18:56

#	Modifying user name:	WinNT
#	Modification time:	15. 06. 2019 18:56

#	Program:	/corina/corina34_cracker 3.40 0067  02.08.2006

@<TRIPOS>MOLECULE
ASD01010026
  15   15    0    0    0
SMALL
NO_CHARGES


@<TRIPOS>ATOM
   1 C1            -0.0180     1.4727     0.0101 C.2     
   2 C2             0.0021    -0.0041     0.0020 C.ar    
   3 C3             1.2195    -0.6892    -0.0133 C.ar    
   4 C4             1.2307    -2.0699    -0.0209 C.ar    
   5 C5             0.0395    -2.7745    -0.0133 C.ar    
   6 C6            -1.1699    -2.1015     0.0018 C.ar    
   7 C7            -1.1955    -0.7217     0.0154 C.ar    
   8 O8             1.0257     2.0943     0.0035 O.2     
   9 O9            -1.1936     2.1303     0.0193 O.3     
  10 I10           -2.9658    -3.1801     0.0131 I       
  11 I11            3.0546    -3.1004    -0.0445 I       
  12 I12            3.0237     0.3756    -0.0254 I       
  13 H13            0.0537    -3.8544    -0.0196 H       
  14 H14           -2.1399    -0.1981     0.0317 H       
  15 H15           -1.1561     3.0966     0.0244 H       
@<TRIPOS>BOND
   1    1    2 1
   2    1    8 2
   3    1    9 1
   4    2    3 ar
   5    2    7 ar
   6    3    4 ar
   7    3   12 1
   8    4    5 ar
   9    4   11 1
  10    5    6 ar
  11    5   13 1
  12    6    7 ar
  13    6   10 1
  14    7   14 1
  15    9   15 1

#	End of record

