#	Name: ASD01148418
#	Creating user name:	WinNT
#	Creation time:	15. 06. 2019 19:02

#	Modifying user name:	WinNT
#	Modification time:	15. 06. 2019 19:02

#	Program:	/corina/corina34_cracker 3.40 0067  02.08.2006

@<TRIPOS>MOLECULE
ASD01148418
  58   61    0    0    0
SMALL
NO_CHARGES


@<TRIPOS>ATOM
   1 C1             0.3631     1.8407     0.0681 C.ar    
   2 C2             0.4615     0.4629    -0.0069 C.ar    
   3 C3            -0.6828    -0.3077    -0.0936 C.ar    
   4 C4            -1.9251     0.2981    -0.1053 C.ar    
   5 C5            -2.0241     1.6751    -0.0304 C.ar    
   6 C6            -0.8811     2.4463     0.0616 C.ar    
   7 C7            -3.3790     2.3349    -0.0432 C.3     
   8 O8            -4.3703     1.4901     0.5758 O.3     
   9 C9            -3.3998     3.5751     0.8818 C.3     
  10 C10           -3.9253     3.0050     2.1856 C.2     
  11 N11           -4.4449     1.8488     1.9414 N.2     
  12 C12           -3.8544     3.6598     3.5067 C.ar    
  13 C13           -4.3802     3.0205     4.6325 C.ar    
  14 C14           -3.2565     4.9161     3.6325 C.ar    
  15 C15           -3.1904     5.5266     4.8647 C.ar    
  16 C16           -3.7212     4.8900     5.9889 C.ar    
  17 C17           -4.3140     3.6311     5.8642 C.ar    
  18 C18           -3.6497     5.5454     7.3117 C.2     
  19 O19           -4.2079     5.0451     8.2688 O.2     
  20 N20           -2.9658     6.6976     7.4569 N.am    
  21 C21           -4.8866     2.9444     7.0774 C.3     
  22 C22           -3.7901     2.7072    -1.4691 C.3     
  23 F23           -3.8291     1.5536    -2.2595 F       
  24 F24           -5.0563     3.3019    -1.4491 F       
  25 F25           -2.8609     3.6067    -2.0025 F       
  26 Cl26           1.7997     2.8092     0.1775 Cl      
  27 N27           -2.8981     7.3188     8.7108 N.pl3   
  28 C28           -2.0308     6.7682     9.7552 C.3     
  29 C29           -3.6575     8.4631     8.9652 C.ar    
  30 C30           -3.5916     9.0803    10.2079 C.ar    
  31 C31           -4.3434    10.2119    10.4559 C.ar    
  32 C32           -5.1613    10.7306     9.4688 C.ar    
  33 C33           -5.2296    10.1184     8.2307 C.ar    
  34 C34           -4.4761     8.9899     7.9742 C.ar    
  35 C35           -0.5758    -1.8087    -0.1758 C.3     
  36 F36            0.7721    -2.1824    -0.1473 F       
  37 F37           -1.2423    -2.3840     0.9114 F       
  38 F38           -1.1578    -2.2531    -1.3679 F       
  39 H39            1.4321    -0.0105     0.0018 H       
  40 H40           -2.8189    -0.3044    -0.1734 H       
  41 H41           -0.9585     3.5219     0.1201 H       
  42 H42           -2.3952     3.9773     1.0124 H       
  43 H43           -4.0753     4.3369     0.4925 H       
  44 H44           -4.8388     2.0474     4.5361 H       
  45 H45           -2.8458     5.4082     2.7633 H       
  46 H46           -2.7279     6.4977     4.9621 H       
  47 H47           -2.5204     7.0967     6.6932 H       
  48 H48           -5.8941     3.3163     7.2636 H       
  49 H49           -4.9227     1.8691     6.9030 H       
  50 H50           -4.2572     3.1512     7.9429 H       
  51 H51           -1.0414     7.2195     9.6812 H       
  52 H52           -2.4573     6.9865    10.7342 H       
  53 H53           -1.9483     5.6888     9.6273 H       
  54 H54           -2.9533     8.6755    10.9794 H       
  55 H55           -4.2929    10.6920    11.4220 H       
  56 H56           -5.7482    11.6156     9.6654 H       
  57 H57           -5.8696    10.5259     7.4621 H       
  58 H58           -4.5299     8.5122     7.0070 H       
@<TRIPOS>BOND
   1    1    2 ar
   2    1   26 1
   3    1    6 ar
   4    2    3 ar
   5    2   39 1
   6    3    4 ar
   7    3   35 1
   8    4    5 ar
   9    4   40 1
  10    5    6 ar
  11    5    7 1
  12    6   41 1
  13    7    8 1
  14    7    9 1
  15    7   22 1
  16    8   11 1
  17    9   10 1
  18    9   42 1
  19    9   43 1
  20   10   11 2
  21   10   12 1
  22   12   13 ar
  23   12   14 ar
  24   13   17 ar
  25   13   44 1
  26   14   15 ar
  27   14   45 1
  28   15   16 ar
  29   15   46 1
  30   16   17 ar
  31   16   18 1
  32   17   21 1
  33   18   19 2
  34   18   20 am
  35   20   27 1
  36   20   47 1
  37   21   48 1
  38   21   49 1
  39   21   50 1
  40   22   23 1
  41   22   24 1
  42   22   25 1
  43   27   28 1
  44   27   29 1
  45   28   51 1
  46   28   52 1
  47   28   53 1
  48   29   30 ar
  49   29   34 ar
  50   30   31 ar
  51   30   54 1
  52   31   32 ar
  53   31   55 1
  54   32   33 ar
  55   32   56 1
  56   33   34 ar
  57   33   57 1
  58   34   58 1
  59   35   36 1
  60   35   37 1
  61   35   38 1

#	End of record

