#	Name: ASD05790105
#	Creating user name:	WinNT
#	Creation time:	15. 06. 2019 21:03

#	Modifying user name:	WinNT
#	Modification time:	15. 06. 2019 21:03

#	Program:	/corina/corina34_cracker 3.40 0067  02.08.2006

@<TRIPOS>MOLECULE
ASD05790105
  95  101    0    0    0
SMALL
NO_CHARGES


@<TRIPOS>ATOM
   1 C1             3.4070    -1.2102    -0.4773 C.3     
   2 C2             3.9912    -2.5926    -0.7775 C.3     
   3 C3             4.6366    -2.5733    -2.1631 C.3     
   4 C4             5.7639    -1.5376    -2.1980 C.3     
   5 C5             5.1791    -0.1495    -1.8879 C.3     
   6 C6             4.5242    -0.1662    -0.5075 C.3     
   7 C7             6.4080    -1.5601    -3.5853 C.3     
   8 C8             5.3960    -1.1418    -4.6651 C.3     
   9 C9             4.9083     0.2517    -4.3202 C.3     
  10 C10            4.1644     0.1630    -2.9631 C.3     
  11 C11            3.8118     0.8229    -5.2284 C.3     
  12 C12            3.1015     1.8482    -4.3488 C.2     
  13 C13            3.4527     1.5060    -2.8943 C.3     
  14 C14            6.2974     0.8943    -1.9115 C.3     
  15 C15            4.4567     1.4858    -6.4306 C.3     
  16 C16            3.4808     2.0679    -7.3967 C.3     
  17 C17            2.9197     3.4158    -7.0175 C.3     
  18 C18            1.8088     3.3085    -5.9887 C.3     
  19 C19            2.3130     2.7789    -4.6970 C.2     
  20 C20            1.7529     3.5266    -3.5144 C.3     
  21 C21            2.3533     4.1025    -8.2919 C.3     
  22 C22            3.1811     5.3858    -8.3924 C.3     
  23 C23            4.4792     4.9400    -7.6596 C.3     
  24 O24            3.9790     4.2695    -6.5146 O.3     
  25 N25            3.6045     5.7759    -9.7318 N.am    
  26 C26            4.5826     6.8816    -9.8003 C.3     
  27 C27            5.7861     6.6052    -8.9015 C.3     
  28 C28            5.3504     6.1614    -7.4934 C.3     
  29 C29            2.5714     3.2208    -9.5232 C.3     
  30 C30            6.6267     7.8784    -8.7863 C.3     
  31 C31            3.1339     5.1663   -10.8379 C.2     
  32 O32            2.0453     4.6268   -10.8177 O.2     
  33 O33            4.9773    -2.9180     0.2043 O.3     
  34 C34            4.4570    -3.6010     1.3466 C.3     
  35 O35            3.8700     5.1550   -11.9652 O.3     
  36 C36            4.2592     4.5696   -14.2769 C.ar    
  37 C37            5.2129     3.5864   -14.4626 C.ar    
  38 C38            6.0887     3.6657   -15.5292 C.ar    
  39 C39            6.0104     4.7279   -16.4103 C.ar    
  40 C40            5.0561     5.7107   -16.2251 C.ar    
  41 C41            4.1812     5.6322   -15.1577 C.ar    
  42 C42            3.3004     4.4800   -13.1176 C.3     
  43 H43            2.6573    -0.9618    -1.2286 H       
  44 H44            2.9437    -1.2180     0.5093 H       
  45 H45            3.1953    -3.3370    -0.7566 H       
  46 H46            5.0437    -3.5593    -2.3867 H       
  47 H47            3.8849    -2.3155    -2.9091 H       
  48 H48            6.5131    -1.7914    -1.4480 H       
  49 H49            4.1069     0.8175    -0.2924 H       
  50 H50            5.2723    -0.4141     0.2455 H       
  51 H51            7.2528    -0.8714    -3.5997 H       
  52 H52            6.7643    -2.5679    -3.7989 H       
  53 H53            5.8796    -1.1333    -5.6419 H       
  54 H54            4.5559    -1.8362    -4.6734 H       
  55 H55            5.7506     0.9397    -4.2476 H       
  56 H56            3.4205    -0.6325    -3.0059 H       
  57 H57            3.1207     0.0375    -5.5344 H       
  58 H58            2.5457     1.4234    -2.2955 H       
  59 H59            4.1150     2.2643    -2.4766 H       
  60 H60            6.7607     0.9082    -2.8981 H       
  61 H61            5.8814     1.8775    -1.6916 H       
  62 H62            7.0469     0.6409    -1.1617 H       
  63 H63            5.1133     2.2812    -6.0782 H       
  64 H64            5.0626     0.7450    -6.9524 H       
  65 H65            3.9726     2.1621    -8.3649 H       
  66 H66            2.6505     1.3703    -7.5065 H       
  67 H67            1.3783     4.2964    -5.8249 H       
  68 H68            1.0343     2.6423    -6.3689 H       
  69 H69            1.0838     4.3124    -3.8651 H       
  70 H70            1.2002     2.8365    -2.8769 H       
  71 H71            2.5696     3.9716    -2.9460 H       
  72 H72            1.2959     4.3353    -8.1662 H       
  73 H73            2.6938     6.2091    -7.8701 H       
  74 H74            5.0095     4.2236    -8.2871 H       
  75 H75            4.9231     6.9950   -10.8295 H       
  76 H76            4.1012     7.8056    -9.4797 H       
  77 H77            6.3928     5.8190    -9.3507 H       
  78 H78            4.7840     6.9585    -7.0117 H       
  79 H79            6.2268     5.9135    -6.8947 H       
  80 H80            2.7626     2.1955    -9.2065 H       
  81 H81            1.6810     3.2471   -10.1513 H       
  82 H82            3.4261     3.5917   -10.0888 H       
  83 H83            6.0215     8.6755    -8.3545 H       
  84 H84            7.4880     7.6885    -8.1459 H       
  85 H85            6.9694     8.1783    -9.7766 H       
  86 H86            3.9959    -4.5370     1.0314 H       
  87 H87            5.2675    -3.8121     2.0441 H       
  88 H88            3.7106    -2.9749     1.8355 H       
  89 H89            5.2741     2.7565   -13.7742 H       
  90 H90            6.8343     2.8979   -15.6739 H       
  91 H91            6.6951     4.7902   -17.2432 H       
  92 H92            4.9954     6.5410   -16.9131 H       
  93 H93            3.4361     6.4004   -15.0126 H       
  94 H94            3.1220     3.4327   -12.8738 H       
  95 H95            2.3578     4.9557   -13.3882 H       
@<TRIPOS>BOND
   1    1    2 1
   2    1    6 1
   3    1   43 1
   4    1   44 1
   5    2    3 1
   6    2   33 1
   7    2   45 1
   8    3    4 1
   9    3   46 1
  10    3   47 1
  11    4    5 1
  12    4    7 1
  13    4   48 1
  14    5    6 1
  15    5   14 1
  16    5   10 1
  17    6   49 1
  18    6   50 1
  19    7    8 1
  20    7   51 1
  21    7   52 1
  22    8    9 1
  23    8   53 1
  24    8   54 1
  25    9   10 1
  26    9   11 1
  27    9   55 1
  28   10   13 1
  29   10   56 1
  30   11   12 1
  31   11   15 1
  32   11   57 1
  33   12   13 1
  34   12   19 2
  35   13   58 1
  36   13   59 1
  37   14   60 1
  38   14   61 1
  39   14   62 1
  40   15   16 1
  41   15   63 1
  42   15   64 1
  43   16   17 1
  44   16   65 1
  45   16   66 1
  46   17   18 1
  47   17   24 1
  48   17   21 1
  49   18   19 1
  50   18   67 1
  51   18   68 1
  52   19   20 1
  53   20   69 1
  54   20   70 1
  55   20   71 1
  56   21   22 1
  57   21   29 1
  58   21   72 1
  59   22   23 1
  60   22   25 1
  61   22   73 1
  62   23   24 1
  63   23   28 1
  64   23   74 1
  65   25   26 1
  66   25   31 am
  67   26   27 1
  68   26   75 1
  69   26   76 1
  70   27   28 1
  71   27   30 1
  72   27   77 1
  73   28   78 1
  74   28   79 1
  75   29   80 1
  76   29   81 1
  77   29   82 1
  78   30   83 1
  79   30   84 1
  80   30   85 1
  81   31   32 2
  82   31   35 1
  83   33   34 1
  84   34   86 1
  85   34   87 1
  86   34   88 1
  87   35   42 1
  88   36   37 ar
  89   36   41 ar
  90   36   42 1
  91   37   38 ar
  92   37   89 1
  93   38   39 ar
  94   38   90 1
  95   39   40 ar
  96   39   91 1
  97   40   41 ar
  98   40   92 1
  99   41   93 1
 100   42   94 1
 101   42   95 1

#	End of record

