#	Name: ASD01410683
#	Creating user name:	WinNT
#	Creation time:	15. 06. 2019 19:18

#	Modifying user name:	WinNT
#	Modification time:	15. 06. 2019 19:18

#	Program:	/corina/corina34_cracker 3.40 0067  02.08.2006

@<TRIPOS>MOLECULE
ASD01410683
  64   67    0    0    0
SMALL
NO_CHARGES


@<TRIPOS>ATOM
   1 C1             0.9622    -2.1255    -3.0898 C.ar    
   2 C2             1.0333    -2.7293    -1.8422 C.ar    
   3 C3             2.2437    -2.7686    -1.1786 C.ar    
   4 N4             3.3268    -2.2405    -1.7157 N.ar    
   5 C5             3.2990    -1.6565    -2.9025 C.ar    
   6 C6             2.1160    -1.5810    -3.6265 C.ar    
   7 O7             4.4366    -1.1259    -3.4171 O.3     
   8 C8             5.5543    -1.1391    -2.6428 C.ar    
   9 C9             6.2152    -2.3376    -2.4011 C.ar    
  10 C10            7.3504    -2.3625    -1.6167 C.ar    
  11 C11            7.8406    -1.1878    -1.0627 C.ar    
  12 C12            7.1781     0.0258    -1.3033 C.ar    
  13 C13            6.0327     0.0409    -2.1031 C.ar    
  14 N14            8.9861    -1.2136    -0.2702 N.am    
  15 C15           10.1973    -1.3669    -0.8411 C.2     
  16 C16            8.8741    -1.0741     1.1839 C.3     
  17 O17           11.1849    -1.5016    -0.1449 O.2     
  18 C18           10.3247    -1.3713    -2.3115 C.ar    
  19 C19            9.3777    -0.7130    -3.1001 C.ar    
  20 C20            9.5020    -0.7206    -4.4723 C.ar    
  21 C21           10.5635    -1.3794    -5.0728 C.ar    
  22 C22           11.5062    -2.0341    -4.3001 C.ar    
  23 C23           11.3973    -2.0298    -2.9219 C.ar    
  24 C24            9.8652    -0.0158     1.6725 C.3     
  25 C25            9.1894    -2.4146     1.8506 C.3     
  26 C26           -0.1974    -3.3352    -1.2181 C.3     
  27 O27            8.1262    -3.3349     1.5963 O.3     
  28 C28            8.3225    -4.6251     2.1784 C.3     
  29 N29           -0.3061    -4.7405    -1.6176 N.pl3   
  30 Cl30          10.7106    -1.3835    -6.8026 Cl      
  31 N31           -0.9246    -5.1564    -2.6655 N.2     
  32 N32            0.2087    -5.7257    -0.9709 N.2     
  33 C33           -0.0786    -6.8410    -1.6031 C.2     
  34 C34           -0.8265    -6.4653    -2.7214 C.2     
  35 F35           12.3181    -2.6688    -2.1675 F       
  36 C36            2.0892    -0.9152    -4.9782 C.3     
  37 F37            0.7917    -0.9686    -5.4986 F       
  38 F38            2.4850     0.4203    -4.8482 F       
  39 F39            2.9660    -1.5794    -5.8426 F       
  40 C40            7.6908     1.2782    -0.7197 C.2     
  41 O41            8.7603     1.2866    -0.1430 O.2     
  42 O42            6.9734     2.4141    -0.8256 O.3     
  43 H43            0.0287    -2.0853    -3.6316 H       
  44 H44            2.3044    -3.2373    -0.2075 H       
  45 H45            5.8381    -3.2546    -2.8292 H       
  46 H46            7.8582    -3.2978    -1.4331 H       
  47 H47            5.5174     0.9708    -2.2929 H       
  48 H48            7.8601    -0.7692     1.4426 H       
  49 H49            8.5494    -0.1992    -2.6348 H       
  50 H50            8.7698    -0.2121    -5.0820 H       
  51 H51           12.3309    -2.5455    -4.7742 H       
  52 H52            9.4157     0.9729     1.5805 H       
  53 H53           10.1144    -0.2060     2.7165 H       
  54 H54           10.7715    -0.0605     1.0687 H       
  55 H55           10.1193    -2.8126     1.4445 H       
  56 H56            9.2951    -2.2697     2.9258 H       
  57 H57           -0.1235    -3.2707    -0.1325 H       
  58 H58           -1.0805    -2.7923    -1.5551 H       
  59 H59            9.2344    -5.0689     1.7791 H       
  60 H60            8.4102    -4.5260     3.2603 H       
  61 H61            7.4726    -5.2645     1.9398 H       
  62 H62            0.2077    -7.8427    -1.3183 H       
  63 H63           -1.2400    -7.1172    -3.4767 H       
  64 H64            7.3506     3.2103    -0.4270 H       
@<TRIPOS>BOND
   1    1    2 ar
   2    1    6 ar
   3    1   43 1
   4    2    3 ar
   5    2   26 1
   6    3    4 ar
   7    3   44 1
   8    4    5 ar
   9    5    6 ar
  10    5    7 1
  11    6   36 1
  12    7    8 1
  13    8    9 ar
  14    8   13 ar
  15    9   10 ar
  16    9   45 1
  17   10   11 ar
  18   10   46 1
  19   11   12 ar
  20   11   14 1
  21   12   13 ar
  22   12   40 1
  23   13   47 1
  24   14   15 am
  25   14   16 1
  26   15   17 2
  27   15   18 1
  28   16   24 1
  29   16   25 1
  30   16   48 1
  31   18   19 ar
  32   18   23 ar
  33   19   20 ar
  34   19   49 1
  35   20   21 ar
  36   20   50 1
  37   21   22 ar
  38   21   30 1
  39   22   23 ar
  40   22   51 1
  41   23   35 1
  42   24   52 1
  43   24   53 1
  44   24   54 1
  45   25   27 1
  46   25   55 1
  47   25   56 1
  48   26   29 1
  49   26   57 1
  50   26   58 1
  51   27   28 1
  52   28   59 1
  53   28   60 1
  54   28   61 1
  55   29   32 1
  56   29   31 1
  57   31   34 2
  58   32   33 2
  59   33   34 1
  60   33   62 1
  61   34   63 1
  62   36   37 1
  63   36   38 1
  64   36   39 1
  65   40   41 2
  66   40   42 1
  67   42   64 1

#	End of record

