#	Name: ASD04882207
#	Creating user name:	WinNT
#	Creation time:	15. 06. 2019 20:54

#	Modifying user name:	WinNT
#	Modification time:	15. 06. 2019 20:54

#	Program:	/corina/corina34_cracker 3.40 0067  02.08.2006

@<TRIPOS>MOLECULE
ASD04882207
  79   84    0    0    0
SMALL
NO_CHARGES


@<TRIPOS>ATOM
   1 C1            -0.1619     1.4866     0.4536 C.2     
   2 C2            -0.1422     0.0094     0.4883 C.2     
   3 N3            -1.1637    -0.6908    -0.0433 N.am    
   4 C4            -1.0913    -2.0874    -0.1180 C.ar    
   5 C5            -2.2496    -2.8566     0.0250 C.ar    
   6 C6            -2.1791    -4.2431    -0.0490 C.ar    
   7 C7            -0.9686    -4.8636    -0.2634 C.ar    
   8 C8             0.1936    -4.1005    -0.4073 C.ar    
   9 C9             0.1248    -2.7063    -0.3391 C.ar    
  10 N10           -3.4756    -2.2334     0.2424 N.3     
  11 C11           -3.5002    -1.5609     1.5488 C.3     
  12 C12           -4.5822    -3.1934     0.1266 C.3     
  13 C13           -5.9131    -2.4561     0.2928 C.3     
  14 N14           -5.9377    -1.7835     1.5992 N.3     
  15 C15           -4.8310    -0.8236     1.7151 C.3     
  16 C16           -7.1675    -1.1584     1.8173 C.ar    
  17 C17           -7.9520    -1.5253     2.9031 C.ar    
  18 C18           -7.6063    -0.1641     0.9518 C.ar    
  19 C19           -8.8226     0.4519     1.1702 C.ar    
  20 C20           -9.6037     0.0804     2.2495 C.ar    
  21 C21           -9.1677    -0.9051     3.1158 C.ar    
  22 C22            1.4904    -4.7657    -0.6365 C.2     
  23 N23            1.5549    -6.1101    -0.7072 N.am    
  24 O24            2.5009    -4.1011    -0.7616 O.2     
  25 O25            0.7955    -0.5742     0.9964 O.2     
  26 S26            1.0986     2.5246     1.1068 S.3     
  27 C27            0.1967     3.9516     0.6027 C.ar    
  28 C28           -0.9867     3.5272    -0.0199 C.ar    
  29 N29           -1.1034     2.1995    -0.0649 N.2     
  30 C30           -7.4776    -2.5993     3.8478 C.3     
  31 C31            2.8426    -6.7706    -0.9348 C.3     
  32 C32            2.6386    -8.2865    -0.9720 C.3     
  33 C33            3.9834    -8.9764    -1.2097 C.3     
  34 N34            3.7881   -10.4278    -1.2453 N.am    
  35 C35            3.4940   -11.1942    -2.4619 C.3     
  36 C36            2.9498   -12.5541    -1.9709 C.3     
  37 C37            3.5935   -12.6638    -0.5692 C.3     
  38 C38            3.8609   -11.2296    -0.1688 C.2     
  39 O39            4.0991   -10.8565     0.9604 O.2     
  40 C40           -1.8758     4.5130    -0.5097 C.ar    
  41 C41           -1.5830     5.8339    -0.3768 C.ar    
  42 C42           -0.4084     6.2451     0.2407 C.ar    
  43 C43            0.4768     5.3123     0.7286 C.ar    
  44 H44           -1.9490    -0.2275    -0.3742 H       
  45 H45           -3.0757    -4.8348     0.0623 H       
  46 H46           -0.9171    -5.9409    -0.3200 H       
  47 H47            1.0211    -2.1141    -0.4503 H       
  48 H48           -3.3934    -2.3016     2.3412 H       
  49 H49           -2.6790    -0.8463     1.6055 H       
  50 H50           -4.5499    -3.6690    -0.8537 H       
  51 H51           -4.4877    -3.9527     0.9028 H       
  52 H52           -6.0199    -1.7153    -0.4996 H       
  53 H53           -6.7342    -3.1706     0.2361 H       
  54 H54           -4.8633    -0.3480     2.6953 H       
  55 H55           -4.9256    -0.0643     0.9388 H       
  56 H56           -6.9965     0.1270     0.1092 H       
  57 H57           -9.1643     1.2249     0.4978 H       
  58 H58          -10.5544     0.5642     2.4185 H       
  59 H59           -9.7801    -1.1928     3.9575 H       
  60 H60            0.7488    -6.6402    -0.6074 H       
  61 H61           -6.8984    -2.1457     4.6522 H       
  62 H62           -8.3383    -3.1194     4.2684 H       
  63 H63           -6.8529    -3.3096     3.3062 H       
  64 H64            3.2594    -6.4366    -1.8850 H       
  65 H65            3.5292    -6.5161    -0.1274 H       
  66 H66            2.2219    -8.6205    -0.0218 H       
  67 H67            1.9520    -8.5410    -1.7794 H       
  68 H68            4.4002    -8.6424    -2.1599 H       
  69 H69            4.6701    -8.7218    -0.4023 H       
  70 H70            2.7409   -10.6799    -3.0589 H       
  71 H71            4.4034   -11.3401    -3.0448 H       
  72 H72            1.8622   -12.5365    -1.9004 H       
  73 H73            3.2842   -13.3648    -2.6182 H       
  74 H74            2.9046   -13.1361     0.1310 H       
  75 H75            4.5283   -13.2219    -0.6214 H       
  76 H76           -2.7940     4.2138    -0.9933 H       
  77 H77           -2.2724     6.5734    -0.7567 H       
  78 H78           -0.1901     7.2984     0.3378 H       
  79 H79            1.3893     5.6334     1.2088 H       
@<TRIPOS>BOND
   1    1    2 1
   2    1   26 1
   3    1   29 2
   4    2    3 am
   5    2   25 2
   6    3    4 1
   7    3   44 1
   8    4    5 ar
   9    4    9 ar
  10    5    6 ar
  11    5   10 1
  12    6    7 ar
  13    6   45 1
  14    7    8 ar
  15    7   46 1
  16    8    9 ar
  17    8   22 1
  18    9   47 1
  19   10   11 1
  20   10   12 1
  21   11   15 1
  22   11   48 1
  23   11   49 1
  24   12   13 1
  25   12   50 1
  26   12   51 1
  27   13   14 1
  28   13   52 1
  29   13   53 1
  30   14   15 1
  31   14   16 1
  32   15   54 1
  33   15   55 1
  34   16   17 ar
  35   16   18 ar
  36   17   30 1
  37   17   21 ar
  38   18   19 ar
  39   18   56 1
  40   19   20 ar
  41   19   57 1
  42   20   21 ar
  43   20   58 1
  44   21   59 1
  45   22   23 am
  46   22   24 2
  47   23   31 1
  48   23   60 1
  49   26   27 1
  50   27   28 ar
  51   27   43 ar
  52   28   29 1
  53   28   40 ar
  54   30   61 1
  55   30   62 1
  56   30   63 1
  57   31   32 1
  58   31   64 1
  59   31   65 1
  60   32   33 1
  61   32   66 1
  62   32   67 1
  63   33   34 1
  64   33   68 1
  65   33   69 1
  66   34   35 1
  67   34   38 am
  68   35   36 1
  69   35   70 1
  70   35   71 1
  71   36   37 1
  72   36   72 1
  73   36   73 1
  74   37   38 1
  75   37   74 1
  76   37   75 1
  77   38   39 2
  78   40   41 ar
  79   40   76 1
  80   41   42 ar
  81   41   77 1
  82   42   43 ar
  83   42   78 1
  84   43   79 1

#	End of record

