#	Name: ASD01918466
#	Creating user name:	WinNT
#	Creation time:	15. 06. 2019 20:11

#	Modifying user name:	WinNT
#	Modification time:	15. 06. 2019 20:11

#	Program:	/corina/corina34_cracker 3.40 0067  02.08.2006

@<TRIPOS>MOLECULE
ASD01918466
  43   46    0    0    0
SMALL
NO_CHARGES


@<TRIPOS>ATOM
   1 O1             0.0021    -0.0041     0.0020 O.2     
   2 C2            -0.0144     1.2127     0.0087 C.2     
   3 N3            -1.1770     1.9055     0.0292 N.am    
   4 C4            -2.4310     1.1715     0.2167 C.3     
   5 C5            -2.7425     1.0769     1.6881 C.ar    
   6 C6            -2.2697     0.0088     2.4274 C.ar    
   7 C7            -2.5554    -0.0780     3.7771 C.ar    
   8 C8            -3.3136     0.9035     4.3876 C.ar    
   9 C9            -3.7857     1.9721     3.6485 C.ar    
  10 C10           -3.4963     2.0611     2.2997 C.ar    
  11 C11           -1.2296     3.3531    -0.1274 C.3     
  12 C12           -0.0771     4.0648     0.5829 C.3     
  13 C13            1.2072     3.3453     0.2662 C.2     
  14 N14            2.4533     3.7818     0.1853 N.2     
  15 C15            3.2350     2.7748    -0.1237 C.2     
  16 C16            4.7282     2.8548    -0.3101 C.3     
  17 O17            5.3778     2.6162     0.9402 O.3     
  18 C18            6.7363     2.6528     0.9466 C.ar    
  19 C19            7.4297     2.9188    -0.2252 C.ar    
  20 C20            8.8106     2.9559    -0.2160 C.ar    
  21 C21            9.5017     2.7279     0.9597 C.ar    
  22 C22            8.8129     2.4621     2.1288 C.ar    
  23 C23            7.4318     2.4299     2.1261 C.ar    
  24 O24            2.4950     1.6617    -0.2474 O.3     
  25 C25            1.2251     1.9978     0.0011 C.2     
  26 H26           -3.2390     1.6966    -0.2927 H       
  27 H27           -2.3306     0.1688    -0.1987 H       
  28 H28           -1.6773    -0.7580     1.9504 H       
  29 H29           -2.1866    -0.9128     4.3546 H       
  30 H30           -3.5375     0.8353     5.4420 H       
  31 H31           -4.3783     2.7387     4.1254 H       
  32 H32           -3.8619     2.8979     1.7231 H       
  33 H33           -1.1907     3.5940    -1.1898 H       
  34 H34           -2.1727     3.7174     0.2799 H       
  35 H35           -0.0139     5.0955     0.2342 H       
  36 H36           -0.2475     4.0512     1.6594 H       
  37 H37            5.0449     2.1034    -1.0334 H       
  38 H38            4.9962     3.8463    -0.6753 H       
  39 H39            6.8904     3.0963    -1.1439 H       
  40 H40            9.3509     3.1630    -1.1279 H       
  41 H41           10.5812     2.7570     0.9648 H       
  42 H42            9.3549     2.2839     3.0457 H       
  43 H43            6.8941     2.2267     3.0404 H       
@<TRIPOS>BOND
   1    1    2 2
   2    2   25 1
   3    2    3 am
   4    3    4 1
   5    3   11 1
   6    4    5 1
   7    4   26 1
   8    4   27 1
   9    5   10 ar
  10    5    6 ar
  11    6    7 ar
  12    6   28 1
  13    7    8 ar
  14    7   29 1
  15    8    9 ar
  16    8   30 1
  17    9   10 ar
  18    9   31 1
  19   10   32 1
  20   11   12 1
  21   11   33 1
  22   11   34 1
  23   12   13 1
  24   12   35 1
  25   12   36 1
  26   13   25 2
  27   13   14 1
  28   14   15 2
  29   15   16 1
  30   15   24 1
  31   16   17 1
  32   16   37 1
  33   16   38 1
  34   17   18 1
  35   18   23 ar
  36   18   19 ar
  37   19   20 ar
  38   19   39 1
  39   20   21 ar
  40   20   40 1
  41   21   22 ar
  42   21   41 1
  43   22   23 ar
  44   22   42 1
  45   23   43 1
  46   24   25 1

#	End of record

