#	Name: ASD03490060
#	Creating user name:	WinNT
#	Creation time:	15. 06. 2019 20:42

#	Modifying user name:	WinNT
#	Modification time:	15. 06. 2019 20:42

#	Program:	/corina/corina34_cracker 3.40 0067  02.08.2006

@<TRIPOS>MOLECULE
ASD03490060
  72   72    0    0    0
SMALL
NO_CHARGES


@<TRIPOS>ATOM
   1 O1            -0.5645     1.7476     0.8291 O.3     
   2 C2            -0.3448     0.4235     0.8091 C.2     
   3 C3            -1.4829    -0.5250     0.5332 C.3     
   4 O4             0.7654    -0.0078     1.0122 O.2     
   5 O5            -1.0273    -1.8715     0.6797 O.3     
   6 C6            -2.6198    -0.2601     1.5237 C.3     
   7 O7            -1.9577    -0.3249    -0.7997 O.3     
   8 C8            -3.0261    -1.1962    -1.1756 C.3     
   9 C9            -4.2251    -0.9581    -0.2539 C.3     
  10 C10           -3.7957    -1.1864     1.1989 C.3     
  11 C11           -3.4311    -0.9120    -2.6234 C.3     
  12 C12           -2.2876    -1.3074    -3.5598 C.3     
  13 C13           -2.7373    -1.1407    -5.0127 C.3     
  14 O14           -1.6963    -1.6269    -5.9004 O.3     
  15 O15           -1.1573    -0.4690    -3.3119 O.3     
  16 C16           -4.7207     0.4797    -0.4208 C.3     
  17 O17           -5.7650     0.7359     0.5204 O.3     
  18 O18           -3.3941    -2.5470     1.3705 O.3     
  19 C19           -1.9355    -1.5511    -7.2191 C.2     
  20 O20           -2.9801    -1.0937    -7.6183 O.2     
  21 C21           -0.9011    -2.0366    -8.2016 C.3     
  22 C22            0.1793    -0.9672    -8.3748 C.3     
  23 N23           -1.5417    -2.2998    -9.4971 N.3     
  24 C24            0.8466    -0.6931    -7.0256 C.3     
  25 C25            1.2295    -1.4601    -9.3724 C.3     
  26 C26            0.5781     2.6013     1.1012 C.3     
  27 C27            0.1428     4.0439     1.0834 C.2     
  28 N28            1.0415     5.0219     1.3124 N.am    
  29 O29           -1.0163     4.3249     0.8631 O.2     
  30 C30            0.6183     6.4243     1.2951 C.3     
  31 C31            2.4415     4.6824     1.5786 C.3     
  32 N32           -5.2328     0.6650    -1.7808 N.am    
  33 O33           -4.3319     2.6878    -1.9172 O.2     
  34 C34           -4.9818     1.8104    -2.4452 C.2     
  35 C35           -5.5086     2.0010    -3.8442 C.3     
  36 H36           -0.3059    -2.1098     0.0815 H       
  37 H37           -2.2719    -0.4551     2.5381 H       
  38 H38           -2.9405     0.7784     1.4409 H       
  39 H39           -2.6990    -2.2321    -1.0861 H       
  40 H40           -5.0253    -1.6523    -0.5106 H       
  41 H41           -4.6296    -0.9643     1.8648 H       
  42 H42           -4.3209    -1.4904    -2.8720 H       
  43 H43           -3.6445     0.1506    -2.7390 H       
  44 H44           -2.0147    -2.3475    -3.3810 H       
  45 H45           -3.6514    -1.7111    -5.1778 H       
  46 H46           -2.9252    -0.0865    -5.2161 H       
  47 H47           -1.3278     0.4725    -3.4515 H       
  48 H48           -3.8962     1.1709    -0.2458 H       
  49 H49           -6.5629     0.2092     0.3756 H       
  50 H50           -3.1090    -2.7627     2.2689 H       
  51 H51           -0.4472    -2.9544    -7.8276 H       
  52 H52           -0.2745    -0.0495    -8.7489 H       
  53 H53           -2.2145    -3.0481    -9.4224 H       
  54 H54           -1.9702    -1.4637    -9.8651 H       
  55 H55            1.3004    -1.6108    -6.6516 H       
  56 H56            1.6163     0.0688    -7.1490 H       
  57 H57            0.0984    -0.3419    -6.3149 H       
  58 H58            0.7542    -1.6554   -10.3336 H       
  59 H59            1.9992    -0.6983    -9.4958 H       
  60 H60            1.6834    -2.3779    -8.9983 H       
  61 H61            0.9884     2.3576     2.0812 H       
  62 H62            1.3403     2.4423     0.3384 H       
  63 H63            0.3102     6.7232     2.2970 H       
  64 H64            1.4486     7.0503     0.9684 H       
  65 H65           -0.2187     6.5428     0.6071 H       
  66 H66            2.5645     3.5997     1.5508 H       
  67 H67            3.0768     5.1398     0.8201 H       
  68 H68            2.7250     5.0551     2.5629 H       
  69 H69           -5.7526    -0.0367    -2.2031 H       
  70 H70           -6.0640     1.1134    -4.1474 H       
  71 H71           -6.1681     2.8684    -3.8691 H       
  72 H72           -4.6747     2.1589    -4.5281 H       
@<TRIPOS>BOND
   1    1    2 1
   2    1   26 1
   3    2    3 1
   4    2    4 2
   5    3    5 1
   6    3    6 1
   7    3    7 1
   8    5   36 1
   9    6   10 1
  10    6   37 1
  11    6   38 1
  12    7    8 1
  13    8    9 1
  14    8   11 1
  15    8   39 1
  16    9   10 1
  17    9   16 1
  18    9   40 1
  19   10   18 1
  20   10   41 1
  21   11   12 1
  22   11   42 1
  23   11   43 1
  24   12   13 1
  25   12   15 1
  26   12   44 1
  27   13   14 1
  28   13   45 1
  29   13   46 1
  30   14   19 1
  31   15   47 1
  32   16   17 1
  33   16   32 1
  34   16   48 1
  35   17   49 1
  36   18   50 1
  37   19   20 2
  38   19   21 1
  39   21   22 1
  40   21   23 1
  41   21   51 1
  42   22   24 1
  43   22   25 1
  44   22   52 1
  45   23   53 1
  46   23   54 1
  47   24   55 1
  48   24   56 1
  49   24   57 1
  50   25   58 1
  51   25   59 1
  52   25   60 1
  53   26   27 1
  54   26   61 1
  55   26   62 1
  56   27   28 am
  57   27   29 2
  58   28   30 1
  59   28   31 1
  60   30   63 1
  61   30   64 1
  62   30   65 1
  63   31   66 1
  64   31   67 1
  65   31   68 1
  66   32   34 am
  67   32   69 1
  68   33   34 2
  69   34   35 1
  70   35   70 1
  71   35   71 1
  72   35   72 1

#	End of record

