#	Name: ASD01351010
#	Creating user name:	WinNT
#	Creation time:	15. 06. 2019 19:16

#	Modifying user name:	WinNT
#	Modification time:	15. 06. 2019 19:16

#	Program:	/corina/corina34_cracker 3.40 0067  02.08.2006

@<TRIPOS>MOLECULE
ASD01351010
  55   58    0    0    0
SMALL
NO_CHARGES


@<TRIPOS>ATOM
   1 C1            -0.0162     1.3436     0.0094 C.2     
   2 N2             0.0004    -0.0041     0.0024 N.am    
   3 C3            -1.2416    -0.7861     0.1197 C.3     
   4 C4             1.2560    -0.7511    -0.1287 C.3     
   5 C5            -1.1306    -1.7608     1.2938 C.3     
   6 C6            -2.4274     0.1554     0.3390 C.3     
   7 C7            -1.4321    -1.5628    -1.1822 C.3     
   8 C8             1.0749    -1.8793    -1.1131 C.ar    
   9 C9            -3.7138    -0.6641     0.4600 C.3     
  10 C10           -0.1562    -2.2536    -1.5861 C.ar    
  11 C11            2.2104    -2.5517    -1.5432 C.ar    
  12 O12           -4.8392     0.2295     0.6681 O.3     
  13 C13           -0.2522    -3.3106    -2.4827 C.ar    
  14 C14            2.1084    -3.5987    -2.4363 C.ar    
  15 C15            0.8786    -3.9807    -2.9014 C.ar    
  16 C16           -6.0546    -0.3372     0.7955 C.2     
  17 C17           -7.2458     0.5100     1.0096 C.ar    
  18 O18           -6.1712    -1.5447     0.7345 O.2     
  19 C19            1.2550     2.0985     0.0189 C.ar    
  20 O20           -1.0763     1.9383     0.0030 O.2     
  21 C21           -8.5071    -0.0741     1.1421 C.ar    
  22 C22           -9.6152     0.7228     1.3417 C.ar    
  23 C23           -9.4788     2.0980     1.4107 C.ar    
  24 C24           -8.2320     2.6835     1.2798 C.ar    
  25 C25           -7.1147     1.8980     1.0860 C.ar    
  26 C26            1.3573     3.3074    -0.6712 C.ar    
  27 C27            2.5464     4.0068    -0.6584 C.ar    
  28 C28            3.6359     3.5124     0.0364 C.ar    
  29 C29            3.5412     2.3145     0.7222 C.ar    
  30 C30            2.3561     1.6082     0.7226 C.ar    
  31 H31            2.0405    -0.0827    -0.4834 H       
  32 H32            1.5388    -1.1585     0.8419 H       
  33 H33           -0.9678    -1.2023     2.2156 H       
  34 H34           -2.0523    -2.3369     1.3761 H       
  35 H35           -0.2928    -2.4376     1.1263 H       
  36 H36           -2.2733     0.7268     1.2544 H       
  37 H37           -2.5100     0.8387    -0.5062 H       
  38 H38           -2.2150    -2.3085    -1.0435 H       
  39 H39           -1.7313    -0.8726    -1.9709 H       
  40 H40           -3.8680    -1.2354    -0.4554 H       
  41 H41           -3.6312    -1.3473     1.3052 H       
  42 H42            3.1813    -2.2529    -1.1763 H       
  43 H43           -1.2206    -3.6105    -2.8548 H       
  44 H44            2.9959    -4.1174    -2.7675 H       
  45 H45            0.7947    -4.8016    -3.5981 H       
  46 H46           -8.6149    -1.1474     1.0881 H       
  47 H47          -10.5914     0.2724     1.4440 H       
  48 H48          -10.3497     2.7174     1.5672 H       
  49 H49           -8.1326     3.7575     1.3342 H       
  50 H50           -6.1420     2.3561     0.9839 H       
  51 H51            0.5077     3.6942    -1.2143 H       
  52 H52            2.6271     4.9422    -1.1923 H       
  53 H53            4.5645     4.0639     0.0433 H       
  54 H54            4.3956     1.9337     1.2621 H       
  55 H55            2.2835     0.6732     1.2583 H       
@<TRIPOS>BOND
   1    1    2 am
   2    1   19 1
   3    1   20 2
   4    2    3 1
   5    2    4 1
   6    3    6 1
   7    3    7 1
   8    3    5 1
   9    4    8 1
  10    4   31 1
  11    4   32 1
  12    5   33 1
  13    5   34 1
  14    5   35 1
  15    6    9 1
  16    6   36 1
  17    6   37 1
  18    7   10 1
  19    7   38 1
  20    7   39 1
  21    8   10 ar
  22    8   11 ar
  23    9   12 1
  24    9   40 1
  25    9   41 1
  26   10   13 ar
  27   11   14 ar
  28   11   42 1
  29   12   16 1
  30   13   15 ar
  31   13   43 1
  32   14   15 ar
  33   14   44 1
  34   15   45 1
  35   16   17 1
  36   16   18 2
  37   17   21 ar
  38   17   25 ar
  39   19   26 ar
  40   19   30 ar
  41   21   22 ar
  42   21   46 1
  43   22   23 ar
  44   22   47 1
  45   23   24 ar
  46   23   48 1
  47   24   25 ar
  48   24   49 1
  49   25   50 1
  50   26   27 ar
  51   26   51 1
  52   27   28 ar
  53   27   52 1
  54   28   29 ar
  55   28   53 1
  56   29   30 ar
  57   29   54 1
  58   30   55 1

#	End of record

