#	Name: ASD01940091
#	Creating user name:	WinNT
#	Creation time:	15. 06. 2019 20:11

#	Modifying user name:	WinNT
#	Modification time:	15. 06. 2019 20:11

#	Program:	/corina/corina34_cracker 3.40 0067  02.08.2006

@<TRIPOS>MOLECULE
ASD01940091
  35   36    0    0    0
SMALL
NO_CHARGES


@<TRIPOS>ATOM
   1 F1             1.9028     1.5963     2.2877 F       
   2 C2             1.0648     2.1496     1.3840 C.ar    
   3 C3             1.3895     2.1333     0.0341 C.ar    
   4 C4             0.5214     2.7051    -0.8946 C.ar    
   5 C5            -0.6623     3.2873    -0.4665 C.ar    
   6 C6            -0.9803     3.3010     0.8791 C.ar    
   7 C7            -0.1224     2.7288     1.8029 C.ar    
   8 N8             2.5873     1.5440    -0.3936 N.pl3   
   9 N9             0.8443     2.6919    -2.2582 N.am    
  10 C10            2.6337     0.1735    -0.6661 C.ar    
  11 C11            1.4785    -0.5920    -0.5837 C.ar    
  12 C12            1.5277    -1.9463    -0.8536 C.ar    
  13 C13            2.7253    -2.5404    -1.2052 C.ar    
  14 C14            3.8794    -1.7821    -1.2888 C.ar    
  15 C15            3.8369    -0.4256    -1.0263 C.ar    
  16 F16            4.9638     0.3151    -1.1084 F       
  17 F17           -0.4409     2.7396     3.1158 F       
  18 S18            0.4284     3.9743    -3.2199 S.o2    
  19 O19            0.9935     3.6609    -4.4855 O.2     
  20 O20           -0.9779     4.0945    -3.0550 O.2     
  21 C21            1.2801     5.3928    -2.4762 C.3     
  22 Cl22           3.0585     5.0963    -2.4815 Cl      
  23 Cl23           0.9158     6.8796    -3.4289 Cl      
  24 C24            2.7740    -4.0179    -1.4977 C.3     
  25 F25            2.5365    -4.2318    -2.8597 F       
  26 F26            4.0359    -4.5188    -1.1601 F       
  27 F27            1.7948    -4.6749    -0.7448 F       
  28 H28           -1.3360     3.7308    -1.1847 H       
  29 H29           -1.9025     3.7554     1.2099 H       
  30 H30            3.3839     2.0870    -0.5004 H       
  31 H31            1.3113     1.9317    -2.6387 H       
  32 H32            0.5422    -0.1294    -0.3084 H       
  33 H33            0.6289    -2.5417    -0.7894 H       
  34 H34            4.8133    -2.2495    -1.5638 H       
  35 H35            0.9369     5.5255    -1.4502 H       
@<TRIPOS>BOND
   1    1    2 1
   2    2    3 ar
   3    2    7 ar
   4    3    4 ar
   5    3    8 1
   6    4    5 ar
   7    4    9 1
   8    5    6 ar
   9    5   28 1
  10    6    7 ar
  11    6   29 1
  12    7   17 1
  13    8   10 1
  14    8   30 1
  15    9   18 am
  16    9   31 1
  17   10   11 ar
  18   10   15 ar
  19   11   12 ar
  20   11   32 1
  21   12   13 ar
  22   12   33 1
  23   13   14 ar
  24   13   24 1
  25   14   15 ar
  26   14   34 1
  27   15   16 1
  28   18   19 2
  29   18   20 2
  30   18   21 1
  31   21   22 1
  32   21   23 1
  33   21   35 1
  34   24   25 1
  35   24   26 1
  36   24   27 1

#	End of record

