#	Name: ASD02560439
#	Creating user name:	WinNT
#	Creation time:	15. 06. 2019 20:25

#	Modifying user name:	WinNT
#	Modification time:	15. 06. 2019 20:25

#	Program:	/corina/corina34_cracker 3.40 0067  02.08.2006

@<TRIPOS>MOLECULE
ASD02560439
  40   43    0    0    0
SMALL
NO_CHARGES


@<TRIPOS>ATOM
   1 C1             0.1529     1.3713     1.2080 C.2     
   2 C2             0.1671    -0.0339     1.1525 C.2     
   3 C3             1.2917    -0.6905     0.8043 C.2     
   4 N4             2.4351    -0.0015     0.5005 N.pl3   
   5 C5             2.4515     1.3738     0.5462 C.2     
   6 C6             1.2795     2.0708     0.9089 C.2     
   7 C7             3.6849    -0.4110     0.1259 C.2     
   8 C8             4.4420     0.7279    -0.0503 C.2     
   9 N9             3.6618     1.7919     0.2132 N.2     
  10 C10            5.8661     0.7723    -0.4580 C.ar    
  11 N11            4.1125    -1.7290    -0.0447 N.3     
  12 C12            2.9891    -2.6672     0.0809 C.3     
  13 C13            3.3182    -3.9836    -0.6448 C.3     
  14 C14            6.5163     1.9998    -0.6002 C.ar    
  15 C15            7.8443     2.0346    -0.9807 C.ar    
  16 C16            8.5289     0.8547    -1.2210 C.ar    
  17 C17            7.8870    -0.3653    -1.0813 C.ar    
  18 C18            6.5630    -0.4117    -0.6954 C.ar    
  19 F19            9.8270     0.8935    -1.5932 F       
  20 F20            5.8484     3.1507    -0.3668 F       
  21 C21            3.2813    -5.0965     0.4228 C.3     
  22 C22            2.3702    -4.5240     1.5370 C.3     
  23 C23            2.7637    -3.0262     1.5642 C.3     
  24 H24           -0.7517     1.8933     1.4831 H       
  25 H25           -0.7278    -0.5899     1.3903 H       
  26 H26            1.2908    -1.7698     0.7651 H       
  27 H27            1.2776     3.1501     0.9487 H       
  28 H28            4.5831    -1.8448    -0.9296 H       
  29 H29            2.0853    -2.2254    -0.3386 H       
  30 H30            2.5736    -4.1811    -1.4159 H       
  31 H31            4.3114    -3.9262    -1.0901 H       
  32 H32            8.3490     2.9830    -1.0913 H       
  33 H33            8.4254    -1.2822    -1.2706 H       
  34 H34            6.0645    -1.3636    -0.5868 H       
  35 H35            2.8506    -6.0082     0.0088 H       
  36 H36            4.2823    -5.2878     0.8094 H       
  37 H37            1.3188    -4.6425     1.2752 H       
  38 H38            2.5868    -4.9977     2.4945 H       
  39 H39            3.6812    -2.8830     2.1350 H       
  40 H40            1.9553    -2.4269     1.9831 H       
@<TRIPOS>BOND
   1    1    2 1
   2    1    6 2
   3    1   24 1
   4    2    3 2
   5    2   25 1
   6    3    4 1
   7    3   26 1
   8    4    5 1
   9    4    7 1
  10    5    6 1
  11    5    9 2
  12    6   27 1
  13    7    8 2
  14    7   11 1
  15    8    9 1
  16    8   10 1
  17   10   14 ar
  18   10   18 ar
  19   11   12 1
  20   11   28 1
  21   12   13 1
  22   12   23 1
  23   12   29 1
  24   13   21 1
  25   13   30 1
  26   13   31 1
  27   14   15 ar
  28   14   20 1
  29   15   16 ar
  30   15   32 1
  31   16   17 ar
  32   16   19 1
  33   17   18 ar
  34   17   33 1
  35   18   34 1
  36   21   22 1
  37   21   35 1
  38   21   36 1
  39   22   23 1
  40   22   37 1
  41   22   38 1
  42   23   39 1
  43   23   40 1

#	End of record

