#	Name: ASD01882486
#	Creating user name:	WinNT
#	Creation time:	15. 06. 2019 19:44

#	Modifying user name:	WinNT
#	Modification time:	15. 06. 2019 19:44

#	Program:	/corina/corina34_cracker 3.40 0067  02.08.2006

@<TRIPOS>MOLECULE
ASD01882486
  59   64    0    0    0
SMALL
NO_CHARGES


@<TRIPOS>ATOM
   1 C1             0.0176     1.4238     0.1479 C.2     
   2 C2             0.0987     0.0550     0.4681 C.2     
   3 C3             1.2817    -0.5963     0.3048 C.2     
   4 C4             2.4013     0.1021    -0.1789 C.2     
   5 C5             2.3087     1.4141    -0.4812 C.2     
   6 N6             1.1288     2.0795    -0.3227 N.pl3   
   7 N7            -0.5248     3.4530    -0.2129 N.2     
   8 N8            -0.9622     2.3120     0.1902 N.2     
   9 C9             0.7394     3.3655    -0.5371 C.2     
  10 C10           -1.1108    -0.6797     0.9861 C.3     
  11 F11           -0.9721    -0.8947     2.3615 F       
  12 F12           -2.2582     0.0840     0.7468 F       
  13 F13           -1.2248    -1.9106     0.3309 F       
  14 C14            1.3914    -2.0611     0.6416 C.3     
  15 N15            1.6391    -2.8287    -0.5862 N.3     
  16 C16            2.1150    -4.1823    -0.2736 C.3     
  17 C17            2.5000    -4.9008    -1.5688 C.3     
  18 C18            1.2796    -4.9690    -2.4910 C.3     
  19 C19            0.7744    -3.5492    -2.7619 C.3     
  20 C20            0.4394    -2.8698    -1.4321 C.3     
  21 N21            1.6568    -5.6041    -3.7562 N.pl3   
  22 C22            2.6134    -5.1368    -4.6157 C.2     
  23 C23            2.7111    -5.9514    -5.6783 C.2     
  24 C24            1.7375    -7.0284    -5.4831 C.ar    
  25 C25            1.3728    -8.1533    -6.2255 C.ar    
  26 C26            0.3987    -8.9888    -5.7567 C.ar    
  27 C27           -0.2319    -8.7284    -4.5476 C.ar    
  28 C28            0.1121    -7.6242    -3.7994 C.ar    
  29 C29            1.1058    -6.7633    -4.2545 C.ar    
  30 C30            1.6057     4.4841    -1.0559 C.3     
  31 C31            1.5262     4.5244    -2.5833 C.3     
  32 C32            2.2468     5.6691    -3.2983 C.3     
  33 C33            2.8121     4.2490    -3.3652 C.3     
  34 H34            3.3411    -0.4139    -0.3090 H       
  35 H35            3.1755     1.9411    -0.8518 H       
  36 H36            2.2163    -2.2130     1.3377 H       
  37 H37            0.4621    -2.3991     1.1002 H       
  38 H38            2.9855    -4.1194     0.3793 H       
  39 H39            1.3237    -4.7385     0.2289 H       
  40 H40            3.3008    -4.3526    -2.0649 H       
  41 H41            2.8385    -5.9109    -1.3378 H       
  42 H42            0.4923    -5.5504    -2.0111 H       
  43 H43            1.5481    -2.9797    -3.2768 H       
  44 H44           -0.1200    -3.5935    -3.3833 H       
  45 H45           -0.3440    -3.4321    -0.9242 H       
  46 H46            0.0930    -1.8537    -1.6206 H       
  47 H47            3.2023    -4.2446    -4.4623 H       
  48 H48            3.3805    -5.8348    -6.5177 H       
  49 H49            1.8587    -8.3620    -7.1672 H       
  50 H50            0.1167    -9.8585    -6.3315 H       
  51 H51           -1.0000    -9.3981    -4.1902 H       
  52 H52           -0.3845    -7.4300    -2.8601 H       
  53 H53            1.2564     5.4330    -0.6487 H       
  54 H54            2.6383     4.3157    -0.7502 H       
  55 H55            0.5892     4.1722    -3.0147 H       
  56 H56            1.7842     6.0697    -4.2003 H       
  57 H57            2.7776     6.3935    -2.6805 H       
  58 H58            3.7148     4.0390    -2.7915 H       
  59 H59            2.7213     3.7152    -4.3113 H       
@<TRIPOS>BOND
   1    1    2 1
   2    1    6 1
   3    1    8 2
   4    2    3 2
   5    2   10 1
   6    3    4 1
   7    3   14 1
   8    4    5 2
   9    4   34 1
  10    5    6 1
  11    5   35 1
  12    6    9 1
  13    7    8 1
  14    7    9 2
  15    9   30 1
  16   10   11 1
  17   10   12 1
  18   10   13 1
  19   14   15 1
  20   14   36 1
  21   14   37 1
  22   15   16 1
  23   15   20 1
  24   16   17 1
  25   16   38 1
  26   16   39 1
  27   17   18 1
  28   17   40 1
  29   17   41 1
  30   18   19 1
  31   18   21 1
  32   18   42 1
  33   19   20 1
  34   19   43 1
  35   19   44 1
  36   20   45 1
  37   20   46 1
  38   21   22 1
  39   21   29 1
  40   22   23 2
  41   22   47 1
  42   23   24 1
  43   23   48 1
  44   24   25 ar
  45   24   29 ar
  46   25   26 ar
  47   25   49 1
  48   26   27 ar
  49   26   50 1
  50   27   28 ar
  51   27   51 1
  52   28   29 ar
  53   28   52 1
  54   30   31 1
  55   30   53 1
  56   30   54 1
  57   31   32 1
  58   31   33 1
  59   31   55 1
  60   32   33 1
  61   32   56 1
  62   32   57 1
  63   33   58 1
  64   33   59 1

#	End of record

