#	Name: ASD05143280
#	Creating user name:	WinNT
#	Creation time:	15. 06. 2019 20:57

#	Modifying user name:	WinNT
#	Modification time:	15. 06. 2019 20:57

#	Program:	/corina/corina34_cracker 3.40 0067  02.08.2006

@<TRIPOS>MOLECULE
ASD05143280
  48   50    0    0    0
SMALL
NO_CHARGES


@<TRIPOS>ATOM
   1 C1             0.3959     1.2336     0.2690 C.2     
   2 N2             0.3956    -0.0322    -0.0988 N.2     
   3 S3            -1.2399    -0.4828    -0.1962 S.3     
   4 C4            -1.8418     1.0635     0.2655 C.2     
   5 N5            -0.7758     1.8067     0.4649 N.2     
   6 N6            -3.1650     1.4417     0.4019 N.pl3   
   7 C7            -3.4820     2.7131     0.8885 C.ar    
   8 C8            -4.8016     3.0398     1.1752 C.ar    
   9 C9            -5.1111     4.2965     1.6563 C.ar    
  10 C10           -4.1093     5.2298     1.8523 C.ar    
  11 C11           -2.7950     4.9079     1.5680 C.ar    
  12 C12           -2.4777     3.6507     1.0919 C.ar    
  13 C13            1.4889    -0.8219    -0.3508 C.ar    
  14 C14            2.4172    -0.4449    -1.3209 C.ar    
  15 C15            1.6814    -2.0078     0.3690 C.ar    
  16 C16            2.7874    -2.7980     0.1077 C.ar    
  17 C17            3.6986    -2.4171    -0.8607 C.ar    
  18 C18            3.5151    -1.2435    -1.5700 C.ar    
  19 C19            1.6609     1.9805     0.4605 C.ar    
  20 C20            1.7164     3.3462     0.1837 C.ar    
  21 C21            2.7995     1.3218     0.9239 C.ar    
  22 C22            3.9747     2.0229     1.1008 C.ar    
  23 C23            4.0249     3.3765     0.8194 C.ar    
  24 C24            2.8974     4.0365     0.3645 C.ar    
  25 O25            0.7859    -2.3811     1.3207 O.3     
  26 C26            1.0476    -3.6028     2.0141 C.3     
  27 C27           -5.8939     2.0239     0.9610 C.3     
  28 H28           -3.8732     0.8246     0.1598 H       
  29 H29           -6.1367     4.5512     1.8794 H       
  30 H30           -4.3543     6.2123     2.2280 H       
  31 H31           -2.0152     5.6391     1.7218 H       
  32 H32           -1.4509     3.3998     0.8704 H       
  33 H33            2.2770     0.4704    -1.8767 H       
  34 H34            2.9393    -3.7130     0.6610 H       
  35 H35            4.5603    -3.0367    -1.0609 H       
  36 H36            4.2313    -0.9534    -2.3245 H       
  37 H37            0.8369     3.8624    -0.1718 H       
  38 H38            2.7614     0.2651     1.1442 H       
  39 H39            4.8570     1.5140     1.4599 H       
  40 H40            4.9470     3.9211     0.9598 H       
  41 H41            2.9427     5.0933     0.1466 H       
  42 H42            0.2582    -3.7826     2.7440 H       
  43 H43            1.0772    -4.4264     1.3007 H       
  44 H44            2.0069    -3.5314     2.5266 H       
  45 H45           -6.0318     1.4411     1.8718 H       
  46 H46           -6.8234     2.5366     0.7135 H       
  47 H47           -5.6165     1.3592     0.1429 H       
  48 Br48           9.9470    11.2123     7.7440 Br      
@<TRIPOS>BOND
   1    1    2 2
   2    1   19 1
   3    1    5 1
   4    2    3 1
   5    2   13 1
   6    3    4 1
   7    4    5 2
   8    4    6 1
   9    6    7 1
  10    6   28 1
  11    7    8 ar
  12    7   12 ar
  13    8    9 ar
  14    8   27 1
  15    9   10 ar
  16    9   29 1
  17   10   11 ar
  18   10   30 1
  19   11   12 ar
  20   11   31 1
  21   12   32 1
  22   13   14 ar
  23   13   15 ar
  24   14   18 ar
  25   14   33 1
  26   15   16 ar
  27   15   25 1
  28   16   17 ar
  29   16   34 1
  30   17   18 ar
  31   17   35 1
  32   18   36 1
  33   19   20 ar
  34   19   21 ar
  35   20   24 ar
  36   20   37 1
  37   21   22 ar
  38   21   38 1
  39   22   23 ar
  40   22   39 1
  41   23   24 ar
  42   23   40 1
  43   24   41 1
  44   25   26 1
  45   26   42 1
  46   26   43 1
  47   26   44 1
  48   27   45 1
  49   27   46 1
  50   27   47 1

#	End of record

