#	Name: ASD03731619
#	Creating user name:	WinNT
#	Creation time:	15. 06. 2019 20:46

#	Modifying user name:	WinNT
#	Modification time:	15. 06. 2019 20:46

#	Program:	/corina/corina34_cracker 3.40 0067  02.08.2006

@<TRIPOS>MOLECULE
ASD03731619
  43   45    0    0    0
SMALL
NO_CHARGES


@<TRIPOS>ATOM
   1 C1             0.1788     1.4487     0.8043 C.2     
   2 C2             0.1631    -0.0195     0.6690 C.ar    
   3 C3             0.2974    -0.8306     1.8022 C.ar    
   4 C4             0.2820    -2.2044     1.6698 C.ar    
   5 C5             0.1337    -2.7811     0.4152 C.ar    
   6 C6             0.0000    -1.9777    -0.7134 C.ar    
   7 C7             0.0084    -0.6059    -0.5906 C.ar    
   8 O8             0.3086     1.9568     1.9014 O.2     
   9 N9             0.0550     2.2275    -0.2887 N.am    
  10 S10            0.0726     3.8765    -0.1367 S.o2    
  11 O11           -0.1038     4.3526    -1.4639 O.2     
  12 O12           -0.8909     4.1457     0.8724 O.2     
  13 C13            1.7427     4.2582     0.4598 C.3     
  14 F14            0.4421    -0.2698     3.0228 F       
  15 O15            0.1196    -4.1322     0.2892 O.3     
  16 C16            1.2922    -4.7591     0.0112 C.ar    
  17 C17            1.3417    -6.1564    -0.0617 C.ar    
  18 C18            2.5501    -6.7904    -0.3476 C.ar    
  19 C19            3.6896    -6.0384    -0.5570 C.ar    
  20 C20            3.6363    -4.6566    -0.4835 C.ar    
  21 C21            2.4420    -4.0179    -0.2068 C.ar    
  22 N22            0.0044    -8.0479     0.9721 N.pl3   
  23 N23           -1.3196    -8.4988     0.8956 N.2     
  24 C24           -1.9786    -7.7168     0.0788 C.2     
  25 C25           -1.1077    -6.7374    -0.3992 C.2     
  26 C26            0.1182    -6.9562     0.1640 C.2     
  27 C27            1.0733    -8.6396     1.7804 C.3     
  28 Cl28           5.1939    -6.8283    -0.9129 Cl      
  29 Cl29          -0.1849    -2.7061    -2.2783 Cl      
  30 H30            0.3858    -2.8316     2.5429 H       
  31 H31           -0.1000     0.0160    -1.4669 H       
  32 H32           -0.0445     1.8222    -1.1643 H       
  33 H33            2.4766     3.9086    -0.2663 H       
  34 H34            1.8447     5.3356     0.5896 H       
  35 H35            1.9103     3.7597     1.4146 H       
  36 H36            2.5952    -7.8679    -0.4049 H       
  37 H37            4.5313    -4.0749    -0.6476 H       
  38 H38            2.4062    -2.9397    -0.1560 H       
  39 H39           -3.0222    -7.8137    -0.1819 H       
  40 H40           -1.3577    -5.9470    -1.0914 H       
  41 H41            1.6511    -9.3319     1.1681 H       
  42 H42            1.7271    -7.8506     2.1519 H       
  43 H43            0.6371    -9.1766     2.6227 H       
@<TRIPOS>BOND
   1    1    2 1
   2    1    8 2
   3    1    9 am
   4    2    3 ar
   5    2    7 ar
   6    3    4 ar
   7    3   14 1
   8    4    5 ar
   9    4   30 1
  10    5    6 ar
  11    5   15 1
  12    6    7 ar
  13    6   29 1
  14    7   31 1
  15    9   10 am
  16    9   32 1
  17   10   11 2
  18   10   12 2
  19   10   13 1
  20   13   33 1
  21   13   34 1
  22   13   35 1
  23   15   16 1
  24   16   17 ar
  25   16   21 ar
  26   17   18 ar
  27   17   26 1
  28   18   19 ar
  29   18   36 1
  30   19   20 ar
  31   19   28 1
  32   20   21 ar
  33   20   37 1
  34   21   38 1
  35   22   23 1
  36   22   26 1
  37   22   27 1
  38   23   24 2
  39   24   25 1
  40   24   39 1
  41   25   26 2
  42   25   40 1
  43   27   41 1
  44   27   42 1
  45   27   43 1

#	End of record

