#	Name: ASD01814009
#	Creating user name:	WinNT
#	Creation time:	15. 06. 2019 19:31

#	Modifying user name:	WinNT
#	Modification time:	15. 06. 2019 19:31

#	Program:	/corina/corina34_cracker 3.40 0067  02.08.2006

@<TRIPOS>MOLECULE
ASD01814009
  42   44    0    0    0
SMALL
NO_CHARGES


@<TRIPOS>ATOM
   1 C1             0.0425     1.4712    -0.0421 C.ar    
   2 C2             0.0373     0.0851    -0.0422 C.ar    
   3 C3             1.2191    -0.6246    -0.0455 C.ar    
   4 C4             2.4366     0.0494    -0.0491 C.ar    
   5 C5             2.4425     1.4552    -0.0495 C.ar    
   6 C6             1.2378     2.1626    -0.0457 C.ar    
   7 N7             3.6242    -0.6503    -0.0519 N.pl3   
   8 C8             4.8208    -0.0487    -0.0546 C.2     
   9 C9             4.9533     1.3249    -0.0553 C.2     
  10 C10            3.7384     2.1566    -0.0534 C.2     
  11 F11            1.2423     3.5136    -0.0460 F       
  12 O12            3.8018     3.3735    -0.0542 O.2     
  13 C13            6.2847     1.9472    -0.0573 C.2     
  14 O14            6.4010     3.2902    -0.0580 O.3     
  15 O15            7.2811     1.2508    -0.0585 O.2     
  16 C16            3.5754    -2.1145    -0.0514 C.3     
  17 C17            3.5551    -2.6169    -1.4720 C.ar    
  18 C18            4.7437    -2.8869    -2.1253 C.ar    
  19 C19            4.7287    -3.3474    -3.4272 C.ar    
  20 C20            3.5179    -3.5395    -4.0804 C.ar    
  21 C21            2.3258    -3.2673    -3.4212 C.ar    
  22 C22            2.3479    -2.8124    -2.1174 C.ar    
  23 C23            4.7546    -4.1678    -6.1345 C.3     
  24 N24            3.4991    -4.0047    -5.3973 N.pl3   
  25 C25            2.2240    -4.3296    -6.0412 C.3     
  26 H26           -0.8920     2.0126    -0.0437 H       
  27 H27           -0.9036    -0.4451    -0.0394 H       
  28 H28            1.2001    -1.7045    -0.0448 H       
  29 H29            5.7118    -0.6591    -0.0559 H       
  30 H30            7.2972     3.6533    -0.0594 H       
  31 H31            4.4540    -2.5071     0.4604 H       
  32 H32            2.6751    -2.4478     0.4648 H       
  33 H33            5.6847    -2.7370    -1.6169 H       
  34 H34            5.6573    -3.5577    -3.9369 H       
  35 H35            1.3827    -3.4156    -3.9262 H       
  36 H36            1.4214    -2.6009    -1.6042 H       
  37 H37            5.1403    -5.1750    -5.9768 H       
  38 H38            4.5746    -4.0100    -7.1979 H       
  39 H39            5.4829    -3.4398    -5.7773 H       
  40 H40            1.4164    -4.2376    -5.3150 H       
  41 H41            2.0490    -3.6416    -6.8684 H       
  42 H42            2.2579    -5.3513    -6.4195 H       
@<TRIPOS>BOND
   1    1    2 ar
   2    1    6 ar
   3    1   26 1
   4    2    3 ar
   5    2   27 1
   6    3    4 ar
   7    3   28 1
   8    4    5 ar
   9    4    7 1
  10    5    6 ar
  11    5   10 1
  12    6   11 1
  13    7    8 1
  14    7   16 1
  15    8    9 2
  16    8   29 1
  17    9   10 1
  18    9   13 1
  19   10   12 2
  20   13   14 1
  21   13   15 2
  22   14   30 1
  23   16   17 1
  24   16   31 1
  25   16   32 1
  26   17   18 ar
  27   17   22 ar
  28   18   19 ar
  29   18   33 1
  30   19   20 ar
  31   19   34 1
  32   20   21 ar
  33   20   24 1
  34   21   22 ar
  35   21   35 1
  36   22   36 1
  37   23   24 1
  38   23   37 1
  39   23   38 1
  40   23   39 1
  41   24   25 1
  42   25   40 1
  43   25   41 1
  44   25   42 1

#	End of record

