#	Name: ASD02562049
#	Creating user name:	WinNT
#	Creation time:	15. 06. 2019 20:25

#	Modifying user name:	WinNT
#	Modification time:	15. 06. 2019 20:25

#	Program:	/corina/corina34_cracker 3.40 0067  02.08.2006

@<TRIPOS>MOLECULE
ASD02562049
  43   46    0    0    0
SMALL
NO_CHARGES


@<TRIPOS>ATOM
   1 C1             0.1365     1.3887     1.1086 C.2     
   2 C2             0.1576    -0.0175     1.0958 C.2     
   3 C3             1.2859    -0.6789     0.7695 C.2     
   4 N4             2.4263     0.0060     0.4458 N.pl3   
   5 C5             2.4358     1.3822     0.4492 C.2     
   6 C6             1.2601     2.0842     0.7897 C.2     
   7 C7             3.6782    -0.4087     0.0847 C.2     
   8 C8             4.4299     0.7281    -0.1260 C.2     
   9 N9             3.6441     1.7959     0.1043 N.2     
  10 N10            4.1121    -1.7286    -0.0453 N.3     
  11 C11            5.8541     0.7669    -0.5335 C.ar    
  12 C12            2.9887    -2.6668     0.0809 C.3     
  13 C13            3.3289    -3.9702    -0.6446 C.3     
  14 C14            2.1589    -4.9473    -0.5133 C.3     
  15 C15            1.9020    -5.2394     0.9665 C.3     
  16 C16            1.5619    -3.9360     1.6920 C.3     
  17 C17            2.7319    -2.9589     1.5606 C.3     
  18 C18            6.3122     1.7758    -1.3803 C.ar    
  19 C19            7.6390     1.8076    -1.7570 C.ar    
  20 C20            8.5159     0.8392    -1.2956 C.ar    
  21 C21            8.0655    -0.1654    -0.4544 C.ar    
  22 C22            6.7419    -0.2020    -0.0668 C.ar    
  23 F23            9.8142     0.8743    -1.6675 F       
  24 H24           -0.7709     1.9144     1.3667 H       
  25 H25           -0.7350    -0.5703     1.3492 H       
  26 H26            1.2904    -1.7589     0.7638 H       
  27 H27            1.2528     3.1642     0.7966 H       
  28 H28            4.6004    -1.8645    -0.9177 H       
  29 H29            2.0959    -2.2263    -0.3629 H       
  30 H30            3.5119    -3.7622    -1.6988 H       
  31 H31            4.2217    -4.4107    -0.2009 H       
  32 H32            1.2660    -4.5068    -0.9570 H       
  33 H33            2.4012    -5.8759    -1.0301 H       
  34 H34            1.0685    -5.9355     1.0601 H       
  35 H35            2.7949    -5.6799     1.4102 H       
  36 H36            0.6690    -3.4955     1.2483 H       
  37 H37            1.3789    -4.1440     2.7462 H       
  38 H38            3.6247    -3.3993     2.0043 H       
  39 H39            2.4895    -2.0303     2.0775 H       
  40 H40            5.6292     2.5307    -1.7410 H       
  41 H41            7.9947     2.5885    -2.4128 H       
  42 H42            8.7527    -0.9185    -0.0980 H       
  43 H43            6.3918    -0.9855     0.5889 H       
@<TRIPOS>BOND
   1    1    2 1
   2    1    6 2
   3    1   24 1
   4    2    3 2
   5    2   25 1
   6    3    4 1
   7    3   26 1
   8    4    5 1
   9    4    7 1
  10    5    6 1
  11    5    9 2
  12    6   27 1
  13    7    8 2
  14    7   10 1
  15    8    9 1
  16    8   11 1
  17   10   12 1
  18   10   28 1
  19   11   18 ar
  20   11   22 ar
  21   12   13 1
  22   12   17 1
  23   12   29 1
  24   13   14 1
  25   13   30 1
  26   13   31 1
  27   14   15 1
  28   14   32 1
  29   14   33 1
  30   15   16 1
  31   15   34 1
  32   15   35 1
  33   16   17 1
  34   16   36 1
  35   16   37 1
  36   17   38 1
  37   17   39 1
  38   18   19 ar
  39   18   40 1
  40   19   20 ar
  41   19   41 1
  42   20   21 ar
  43   20   23 1
  44   21   22 ar
  45   21   42 1
  46   22   43 1

#	End of record

