#	Name: ASD01900438
#	Creating user name:	WinNT
#	Creation time:	15. 06. 2019 19:51

#	Modifying user name:	WinNT
#	Modification time:	15. 06. 2019 19:51

#	Program:	/corina/corina34_cracker 3.40 0067  02.08.2006

@<TRIPOS>MOLECULE
ASD01900438
  29   31    0    0    0
SMALL
NO_CHARGES


@<TRIPOS>ATOM
   1 C1            -0.0040     1.4291    -0.1460 C.ar    
   2 C2             0.0259     0.0298    -0.2994 C.ar    
   3 C3             1.2590    -0.6173    -0.3697 C.ar    
   4 C4             2.4048     0.1490    -0.2850 C.ar    
   5 C5             2.3008     1.5256    -0.1341 C.ar    
   6 N6             1.1310     2.1200    -0.0702 N.ar    
   7 N7            -2.1239     0.7089    -0.2249 N.2     
   8 N8            -1.2752    -0.3963    -0.3461 N.pl3   
   9 C9            -1.4197     1.8022    -0.0991 C.2     
  10 N10           -1.9266     3.0975     0.0450 N.pl3   
  11 C11           -3.3038     3.3227    -0.0405 C.ar    
  12 C12           -3.8799     4.3812     0.6506 C.ar    
  13 C13           -5.2403     4.6017     0.5648 C.ar    
  14 C14           -6.0305     3.7682    -0.2092 C.ar    
  15 C15           -5.4587     2.7126    -0.8989 C.ar    
  16 C16           -4.0973     2.4919    -0.8209 C.ar    
  17 C17           -5.8658     5.7498     1.3142 C.3     
  18 F18           -4.8750     6.4416     2.0191 F       
  19 F19           -6.4844     6.6169     0.4072 F       
  20 F20           -6.8187     5.2567     2.2120 F       
  21 F21           -7.3614     3.9852    -0.2910 F       
  22 H22            1.3166    -1.6894    -0.4869 H       
  23 H23            3.3765    -0.3198    -0.3355 H       
  24 H24            3.2002     2.1199    -0.0684 H       
  25 H25           -1.5621    -1.3173    -0.4476 H       
  26 H26           -1.3228     3.8397     0.2042 H       
  27 H27           -3.2642     5.0310     1.2549 H       
  28 H28           -6.0769     2.0637    -1.5015 H       
  29 H29           -3.6510     1.6712    -1.3629 H       
@<TRIPOS>BOND
   1    1    2 ar
   2    1    6 ar
   3    1    9 1
   4    2    3 ar
   5    2    8 1
   6    3    4 ar
   7    3   22 1
   8    4    5 ar
   9    4   23 1
  10    5    6 ar
  11    5   24 1
  12    7    8 1
  13    7    9 2
  14    8   25 1
  15    9   10 1
  16   10   11 1
  17   10   26 1
  18   11   12 ar
  19   11   16 ar
  20   12   13 ar
  21   12   27 1
  22   13   14 ar
  23   13   17 1
  24   14   15 ar
  25   14   21 1
  26   15   16 ar
  27   15   28 1
  28   16   29 1
  29   17   18 1
  30   17   19 1
  31   17   20 1

#	End of record

