#	Name: ASD01411275
#	Creating user name:	WinNT
#	Creation time:	15. 06. 2019 19:19

#	Modifying user name:	WinNT
#	Modification time:	15. 06. 2019 19:19

#	Program:	/corina/corina34_cracker 3.40 0067  02.08.2006

@<TRIPOS>MOLECULE
ASD01411275
  84   90    0    0    0
SMALL
NO_CHARGES


@<TRIPOS>ATOM
   1 C1            -0.0170     1.4044     0.0098 C.ar    
   2 C2             0.0021    -0.0041     0.0020 C.ar    
   3 C3            -1.2071    -0.7134     0.0208 C.ar    
   4 C4            -2.3893    -0.0456     0.0556 C.ar    
   5 C5            -2.4245     1.3675     0.0701 C.ar    
   6 C6            -1.2313     2.0754     0.0311 C.ar    
   7 N7             1.2957     1.8354    -0.0005 N.pl3   
   8 C8             2.1183     0.7343    -0.0294 C.2     
   9 C9             1.3608    -0.3947    -0.0261 C.2     
  10 C10            1.7261     3.2343     0.0178 C.3     
  11 C11            1.0489     3.9707     1.1458 C.2     
  12 N12            1.0868     5.3286     1.1560 N.am    
  13 O13            0.4858     3.3608     2.0286 O.2     
  14 C14            0.3660     6.0296     2.2320 C.3     
  15 C15           -0.9673     6.5446     1.6817 C.3     
  16 C16           -2.0500     6.3221     2.7039 C.2     
  17 C17           -3.7428     2.0082     0.1250 C.2     
  18 O18           -4.7165     1.2620     0.0429 O.2     
  19 N19           -4.0093     3.3152     0.2758 N.am    
  20 C20           -3.2393     5.9088     2.3502 C.2     
  21 C21           -3.5710     5.6394     0.9069 C.3     
  22 C22           -2.9475     4.3079     0.4787 C.3     
  23 C23            3.5958     0.7512    -0.0637 C.ar    
  24 C24            4.2551     1.6174    -0.9219 C.ar    
  25 C25            1.8825    -1.8083    -0.0473 C.3     
  26 C26            1.4041    -2.5473     1.2041 C.3     
  27 C27            1.9337    -3.9826     1.1826 C.3     
  28 C28            1.4122    -4.7000    -0.0641 C.3     
  29 C29            1.8906    -3.9610    -1.3154 C.3     
  30 C30            1.3610    -2.5258    -1.2939 C.3     
  31 C31            5.6553     1.6274    -0.9484 C.ar    
  32 C32            6.3812     0.7537    -0.0994 C.ar    
  33 C33            5.6814    -0.1139     0.7610 C.ar    
  34 C34            4.3242    -0.1073     0.7783 C.ar    
  35 C35            6.3610     2.4952    -1.8093 C.ar    
  36 C36            7.7219     2.4587    -1.7904 C.ar    
  37 C37            8.3854     1.5696    -0.9255 C.ar    
  38 N38            7.7165     0.7606    -0.1222 N.ar    
  39 C39            9.8605     1.5395    -0.9148 C.2     
  40 C40           10.6360     0.7440    -0.1433 C.2     
  41 N41           11.9257     0.9107    -0.3236 N.2     
  42 C42           12.2935     1.7921    -1.1941 C.2     
  43 S43           10.9268     2.5280    -1.9103 S.3     
  44 C44           10.0685    -0.2483     0.8388 C.3     
  45 C45           13.7245     2.1203    -1.5343 C.3     
  46 H46           -1.1997    -1.7935     0.0063 H       
  47 H47           -3.3171    -0.5978     0.0717 H       
  48 H48           -1.2213     3.1535    -0.0011 H       
  49 H49            2.8043     3.2982     0.1495 H       
  50 H50            1.4541     3.7055    -0.9292 H       
  51 H51            1.5755     5.8204     0.4762 H       
  52 H52            0.1802     5.3471     3.0597 H       
  53 H53            0.9633     6.8724     2.5814 H       
  54 H54           -0.8815     7.6109     1.4687 H       
  55 H55           -1.2068     6.0108     0.7633 H       
  56 H56           -1.8413     6.5080     3.7507 H       
  57 H57           -4.9436     3.6143     0.2517 H       
  58 H58           -3.9986     5.7586     3.1083 H       
  59 H59           -4.6537     5.5869     0.7867 H       
  60 H60           -3.1786     6.4421     0.2834 H       
  61 H61           -2.2667     3.9685     1.2598 H       
  62 H62           -2.4012     4.4575    -0.4537 H       
  63 H63            3.6936     2.2789    -1.5649 H       
  64 H64            2.9722    -1.7932    -0.0659 H       
  65 H65            1.7756    -2.0362     2.0922 H       
  66 H66            0.3143    -2.5624     1.2228 H       
  67 H67            3.0235    -3.9674     1.1639 H       
  68 H68            1.5929    -4.5090     2.0741 H       
  69 H69            1.7895    -5.7225    -0.0794 H       
  70 H70            0.3225    -4.7151    -0.0454 H       
  71 H71            2.9804    -3.9459    -1.3341 H       
  72 H72            1.5191    -4.4721    -2.2036 H       
  73 H73            0.2712    -2.5409    -1.2752 H       
  74 H74            1.7018    -1.9993    -2.1854 H       
  75 H75            6.2256    -0.7831     1.4109 H       
  76 H76            3.7966    -0.7762     1.4422 H       
  77 H77            5.8346     3.1710    -2.4670 H       
  78 H78            8.2903     3.1101    -2.4377 H       
  79 H79            9.9223    -1.2077     0.3425 H       
  80 H80           10.7608    -0.3718     1.6716 H       
  81 H81            9.1120     0.1169     1.2126 H       
  82 H82           14.0603     1.4795    -2.3496 H       
  83 H83           13.7951     3.1642    -1.8399 H       
  84 H84           14.3531     1.9545    -0.6594 H       
@<TRIPOS>BOND
   1    1    2 ar
   2    1    7 1
   3    1    6 ar
   4    2    3 ar
   5    2    9 1
   6    3    4 ar
   7    3   46 1
   8    4    5 ar
   9    4   47 1
  10    5    6 ar
  11    5   17 1
  12    6   48 1
  13    7    8 1
  14    7   10 1
  15    8    9 2
  16    8   23 1
  17    9   25 1
  18   10   11 1
  19   10   49 1
  20   10   50 1
  21   11   12 am
  22   11   13 2
  23   12   14 1
  24   12   51 1
  25   14   15 1
  26   14   52 1
  27   14   53 1
  28   15   16 1
  29   15   54 1
  30   15   55 1
  31   16   20 2
  32   16   56 1
  33   17   18 2
  34   17   19 am
  35   19   22 1
  36   19   57 1
  37   20   21 1
  38   20   58 1
  39   21   22 1
  40   21   59 1
  41   21   60 1
  42   22   61 1
  43   22   62 1
  44   23   24 ar
  45   23   34 ar
  46   24   31 ar
  47   24   63 1
  48   25   26 1
  49   25   30 1
  50   25   64 1
  51   26   27 1
  52   26   65 1
  53   26   66 1
  54   27   28 1
  55   27   67 1
  56   27   68 1
  57   28   29 1
  58   28   69 1
  59   28   70 1
  60   29   30 1
  61   29   71 1
  62   29   72 1
  63   30   73 1
  64   30   74 1
  65   31   32 ar
  66   31   35 ar
  67   32   33 ar
  68   32   38 ar
  69   33   34 ar
  70   33   75 1
  71   34   76 1
  72   35   36 ar
  73   35   77 1
  74   36   37 ar
  75   36   78 1
  76   37   38 ar
  77   37   39 1
  78   39   40 2
  79   39   43 1
  80   40   41 1
  81   40   44 1
  82   41   42 2
  83   42   43 1
  84   42   45 1
  85   44   79 1
  86   44   80 1
  87   44   81 1
  88   45   82 1
  89   45   83 1
  90   45   84 1

#	End of record

