#	Name: ASD02038794
#	Creating user name:	WinNT
#	Creation time:	15. 06. 2019 20:17

#	Modifying user name:	WinNT
#	Modification time:	15. 06. 2019 20:17

#	Program:	/corina/corina34_cracker 3.40 0067  02.08.2006

@<TRIPOS>MOLECULE
ASD02038794
  46   48    0    0    0
SMALL
NO_CHARGES


@<TRIPOS>ATOM
   1 C1            -1.2821    -0.8500     0.4642 C.2     
   2 C2            -0.0599    -0.0338     0.3011 C.2     
   3 N3             1.1372    -0.6350     0.1537 N.am    
   4 C4             1.2415    -2.0931     0.2505 C.3     
   5 C5             1.2139    -2.6915    -1.1323 C.ar    
   6 C6             2.3343     0.1696    -0.1033 C.3     
   7 O7            -0.1350     1.1795     0.3000 O.2     
   8 N8            -1.3385    -2.1940     0.4945 N.2     
   9 C9            -2.5941    -2.5267     0.6537 C.2     
  10 N10           -3.3114    -1.3900     0.7215 N.pl3   
  11 N11           -2.5056    -0.3907     0.6109 N.2     
  12 C12            2.3980    -3.0134    -1.7688 C.ar    
  13 C13            2.1233     1.0138    -1.3639 C.3     
  14 C14            3.3467     1.9085    -1.5801 C.3     
  15 O15            3.5462     2.7272    -0.4260 O.3     
  16 C16            3.7954     1.9929     0.7744 C.3     
  17 C17            2.5901     1.1016     1.0851 C.3     
  18 C18            0.0045    -2.9231    -1.7600 C.ar    
  19 C19           -0.0251    -3.4726    -3.0288 C.ar    
  20 C20            1.1565    -3.7922    -3.6723 C.ar    
  21 C21            2.3729    -3.5643    -3.0405 C.ar    
  22 C22           -4.7633    -1.3033     0.8973 C.3     
  23 O23            3.5366    -3.8769    -3.6703 O.3     
  24 C24            4.7490    -3.6154    -2.9606 C.3     
  25 F25            1.1280    -4.3298    -4.9114 F       
  26 H26            2.1772    -2.3585     0.7427 H       
  27 H27            0.4035    -2.4796     0.8305 H       
  28 H28            3.1922    -0.4879    -0.2441 H       
  29 H29           -2.9842    -3.5317     0.7185 H       
  30 H30            3.3421    -2.8354    -1.2756 H       
  31 H31            1.9955     0.3574    -2.2247 H       
  32 H32            1.2353     1.6340    -1.2426 H       
  33 H33            4.2275     1.2871    -1.7417 H       
  34 H34            3.1839     2.5424    -2.4517 H       
  35 H35            4.6821     1.3726     0.6436 H       
  36 H36            3.9559     2.6876     1.5988 H       
  37 H37            1.7115     1.7236     1.2559 H       
  38 H38            2.7961     0.5080     1.9758 H       
  39 H39           -0.9193    -2.6748    -1.2585 H       
  40 H40           -0.9714    -3.6526    -3.5171 H       
  41 H41           -4.9987    -1.2640     1.9609 H       
  42 H42           -5.1352    -0.4024     0.4094 H       
  43 H43           -5.2360    -2.1790     0.4526 H       
  44 H44            4.8151    -2.5512    -2.7342 H       
  45 H45            4.7564    -4.1857    -2.0317 H       
  46 H46            5.6001    -3.9098    -3.5745 H       
@<TRIPOS>BOND
   1    1    2 1
   2    1    8 1
   3    1   11 2
   4    2    3 am
   5    2    7 2
   6    3    4 1
   7    3    6 1
   8    4    5 1
   9    4   26 1
  10    4   27 1
  11    5   12 ar
  12    5   18 ar
  13    6   13 1
  14    6   17 1
  15    6   28 1
  16    8    9 2
  17    9   10 1
  18    9   29 1
  19   10   11 1
  20   10   22 1
  21   12   21 ar
  22   12   30 1
  23   13   14 1
  24   13   31 1
  25   13   32 1
  26   14   15 1
  27   14   33 1
  28   14   34 1
  29   15   16 1
  30   16   17 1
  31   16   35 1
  32   16   36 1
  33   17   37 1
  34   17   38 1
  35   18   19 ar
  36   18   39 1
  37   19   20 ar
  38   19   40 1
  39   20   21 ar
  40   20   25 1
  41   21   23 1
  42   22   41 1
  43   22   42 1
  44   22   43 1
  45   23   24 1
  46   24   44 1
  47   24   45 1
  48   24   46 1

#	End of record

