#	Name: ASD05740225
#	Creating user name:	WinNT
#	Creation time:	15. 06. 2019 21:03

#	Modifying user name:	WinNT
#	Modification time:	15. 06. 2019 21:03

#	Program:	/corina/corina34_cracker 3.40 0067  02.08.2006

@<TRIPOS>MOLECULE
ASD05740225
  68   73    0    0    0
SMALL
NO_CHARGES


@<TRIPOS>ATOM
   1 C1             1.6128    -3.4224     0.8077 C.3     
   2 N2             0.8379    -2.4430     1.5823 N.3     
   3 C3            -0.5365    -2.6466     1.4162 C.ar    
   4 C4            -1.4444    -1.8219     2.0676 C.ar    
   5 C5            -2.8005    -2.0228     1.9037 C.ar    
   6 C6            -3.2567    -3.0498     1.0879 C.ar    
   7 C7            -2.3490    -3.8748     0.4368 C.ar    
   8 C8            -0.9928    -3.6698     0.5954 C.ar    
   9 N9            -4.6326    -3.2539     0.9220 N.pl3   
  10 C10           -5.4975    -2.1772     0.9396 C.ar    
  11 N11           -4.9997    -0.9606     1.1326 N.ar    
  12 N12           -6.7916    -2.3961     0.7580 N.ar    
  13 C13           -7.6510    -1.3855     0.7687 C.ar    
  14 C14           -7.1585    -0.0782     0.9769 C.ar    
  15 C15           -5.7828     0.1029     1.1583 C.ar    
  16 N16           -8.9954    -1.5802     0.5834 N.am    
  17 C17           -9.8526    -0.5440     0.5968 C.2     
  18 C18           -9.4144     0.7802     0.7998 C.2     
  19 C19           -8.0947     1.0416     0.9907 C.2     
  20 C20           -9.5055    -2.9364     0.3670 C.3     
  21 O21          -11.0410    -0.7557     0.4285 O.2     
  22 C22           -9.6638    -3.6313     1.6949 C.ar    
  23 C23           -9.9717    -4.9891     1.7397 C.ar    
  24 C24            1.2090    -2.4877     3.0036 C.3     
  25 C25            2.7018    -2.1825     3.1482 C.3     
  26 N26            3.4766    -3.1619     2.3735 N.3     
  27 C27            3.1056    -3.1173     0.9523 C.3     
  28 C28          -10.1163    -5.6256     2.9710 C.ar    
  29 C29           -9.9540    -4.9090     4.1392 C.ar    
  30 C30           -9.6483    -3.5608     4.0901 C.ar    
  31 C31           -9.4983    -2.9242     2.8702 C.ar    
  32 C32          -10.1456    -5.7550     0.4807 C.ar    
  33 C33            4.9195    -2.9482     2.5479 C.3     
  34 C34           -9.3705    -6.8872     0.2383 C.ar    
  35 C35           -9.5368    -7.5961    -0.9342 C.ar    
  36 C36          -10.4708    -7.1845    -1.8677 C.ar    
  37 C37          -11.2430    -6.0613    -1.6322 C.ar    
  38 C38          -11.0887    -5.3480    -0.4608 C.ar    
  39 Cl39          -9.1141    -1.2321     2.8170 Cl      
  40 H40            1.4087    -4.4256     1.1820 H       
  41 H41            1.3292    -3.3614    -0.2430 H       
  42 H42           -1.0896    -1.0236     2.7027 H       
  43 H43           -3.5066    -1.3815     2.4103 H       
  44 H44           -2.7038    -4.6739    -0.1971 H       
  45 H45           -0.2868    -4.3114     0.0891 H       
  46 H46           -4.9779    -4.1513     0.7948 H       
  47 H47           -5.3716     1.0884     1.3202 H       
  48 H48          -10.1297     1.5894     0.8040 H       
  49 H49           -7.7473     2.0521     1.1475 H       
  50 H50          -10.4722    -2.8854    -0.1339 H       
  51 H51           -8.8037    -3.4939    -0.2533 H       
  52 H52            0.6310    -1.7451     3.5538 H       
  53 H53            1.0003    -3.4802     3.4029 H       
  54 H54            2.9058    -1.1794     2.7738 H       
  55 H55            2.9853    -2.2436     4.1989 H       
  56 H56            3.6835    -3.8598     0.4021 H       
  57 H57            3.3142    -2.1247     0.5530 H       
  58 H58          -10.3553    -6.6780     3.0110 H       
  59 H59          -10.0663    -5.4017     5.0937 H       
  60 H60           -9.5226    -3.0039     5.0068 H       
  61 H61            5.1776    -3.0531     3.6017 H       
  62 H62            5.4693    -3.6864     1.9640 H       
  63 H63            5.1822    -1.9466     2.2074 H       
  64 H64           -8.6407    -7.2092     0.9663 H       
  65 H65           -8.9362    -8.4736    -1.1233 H       
  66 H66          -10.5974    -7.7420    -2.7840 H       
  67 H67          -11.9708    -5.7444    -2.3645 H       
  68 H68          -11.6922    -4.4711    -0.2779 H       
@<TRIPOS>BOND
   1    1    2 1
   2    1   27 1
   3    1   40 1
   4    1   41 1
   5    2    3 1
   6    2   24 1
   7    3    4 ar
   8    3    8 ar
   9    4    5 ar
  10    4   42 1
  11    5    6 ar
  12    5   43 1
  13    6    7 ar
  14    6    9 1
  15    7    8 ar
  16    7   44 1
  17    8   45 1
  18    9   10 1
  19    9   46 1
  20   10   11 ar
  21   10   12 ar
  22   11   15 ar
  23   12   13 ar
  24   13   14 ar
  25   13   16 1
  26   14   15 ar
  27   14   19 1
  28   15   47 1
  29   16   17 am
  30   16   20 1
  31   17   18 1
  32   17   21 2
  33   18   19 2
  34   18   48 1
  35   19   49 1
  36   20   22 1
  37   20   50 1
  38   20   51 1
  39   22   23 ar
  40   22   31 ar
  41   23   28 ar
  42   23   32 1
  43   24   25 1
  44   24   52 1
  45   24   53 1
  46   25   26 1
  47   25   54 1
  48   25   55 1
  49   26   27 1
  50   26   33 1
  51   27   56 1
  52   27   57 1
  53   28   29 ar
  54   28   58 1
  55   29   30 ar
  56   29   59 1
  57   30   31 ar
  58   30   60 1
  59   31   39 1
  60   32   34 ar
  61   32   38 ar
  62   33   61 1
  63   33   62 1
  64   33   63 1
  65   34   35 ar
  66   34   64 1
  67   35   36 ar
  68   35   65 1
  69   36   37 ar
  70   36   66 1
  71   37   38 ar
  72   37   67 1
  73   38   68 1

#	End of record

