#	Name: ASD00990054
#	Creating user name:	WinNT
#	Creation time:	15. 06. 2019 18:54

#	Modifying user name:	WinNT
#	Modification time:	15. 06. 2019 18:54

#	Program:	/corina/corina34_cracker 3.40 0067  02.08.2006

@<TRIPOS>MOLECULE
ASD00990054
  38   39    0    0    0
SMALL
NO_CHARGES


@<TRIPOS>ATOM
   1 C1            -0.0170     1.4007     0.0097 C.ar    
   2 C2             0.0021    -0.0041     0.0020 C.ar    
   3 C3            -1.1924    -0.7115     0.0089 C.ar    
   4 C4            -2.3916    -0.0277     0.0234 C.ar    
   5 C5            -2.4087     1.3619     0.0306 C.ar    
   6 C6            -1.2423     2.0725     0.0200 C.ar    
   7 N7             1.2769     1.8140    -0.0004 N.2     
   8 C8             2.0662     0.7800    -0.0135 C.2     
   9 N9             1.3339    -0.3671    -0.0126 N.pl3   
  10 C10            3.5718     0.8432    -0.0275 C.3     
  11 N11            4.0415     0.9919    -1.4072 N.am    
  12 C12            4.2244     2.3284    -1.9786 C.3     
  13 F13           -3.5556    -0.7136     0.0302 F       
  14 O14            4.7369     0.0359    -3.4187 O.3     
  15 C15            5.0011    -1.1842    -4.1602 C.3     
  16 C16            3.7191    -2.0144    -4.2497 C.3     
  17 C17            5.4792    -0.8308    -5.5700 C.3     
  18 C18            6.0835    -1.9930    -3.4424 C.3     
  19 C19            4.3052    -0.1008    -2.1508 C.2     
  20 O20            4.1535    -1.2093    -1.6768 O.2     
  21 H21           -1.1836    -1.7915     0.0027 H       
  22 H22           -3.3535     1.8850     0.0415 H       
  23 H23           -1.2669     3.1522     0.0257 H       
  24 H24            1.6831    -1.2721    -0.0208 H       
  25 H25            3.9052     1.6961     0.5637 H       
  26 H26            3.9779    -0.0746     0.3976 H       
  27 H27            5.2423     2.6687    -1.7883 H       
  28 H28            4.0489     2.2910    -3.0537 H       
  29 H29            3.5183     3.0199    -1.5190 H       
  30 H30            2.9480    -1.4382    -4.7610 H       
  31 H31            3.9174    -2.9303    -4.8063 H       
  32 H32            3.3785    -2.2662    -3.2453 H       
  33 H33            6.3925    -0.2393    -5.5063 H       
  34 H34            5.6775    -1.7467    -6.1267 H       
  35 H35            4.7081    -0.2546    -6.0814 H       
  36 H36            5.7428    -2.2448    -2.4381 H       
  37 H37            6.2818    -2.9089    -3.9991 H       
  38 H38            6.9968    -1.4015    -3.3787 H       
@<TRIPOS>BOND
   1    1    2 ar
   2    1    7 1
   3    1    6 ar
   4    2    3 ar
   5    2    9 1
   6    3    4 ar
   7    3   21 1
   8    4    5 ar
   9    4   13 1
  10    5    6 ar
  11    5   22 1
  12    6   23 1
  13    7    8 2
  14    8    9 1
  15    8   10 1
  16    9   24 1
  17   10   11 1
  18   10   25 1
  19   10   26 1
  20   11   12 1
  21   11   19 am
  22   12   27 1
  23   12   28 1
  24   12   29 1
  25   14   15 1
  26   14   19 1
  27   15   16 1
  28   15   17 1
  29   15   18 1
  30   16   30 1
  31   16   31 1
  32   16   32 1
  33   17   33 1
  34   17   34 1
  35   17   35 1
  36   18   36 1
  37   18   37 1
  38   18   38 1
  39   19   20 2

#	End of record

