#	Name: ASD07300172
#	Creating user name:	WinNT
#	Creation time:	15. 06. 2019 21:09

#	Modifying user name:	WinNT
#	Modification time:	15. 06. 2019 21:09

#	Program:	/corina/corina34_cracker 3.40 0067  02.08.2006

@<TRIPOS>MOLECULE
ASD07300172
  47   52    0    0    0
SMALL
NO_CHARGES


@<TRIPOS>ATOM
   1 C1            -0.0169     1.3941     0.0097 C.ar    
   2 C2             0.0021    -0.0041     0.0020 C.ar    
   3 C3             1.2199    -0.6674    -0.0132 C.ar    
   4 C4             2.3808     0.0923    -0.0202 C.ar    
   5 C5             2.2878     1.4713    -0.0119 C.ar    
   6 N6             1.1161     2.0768     0.0026 N.ar    
   7 C7            -2.1139     0.6622     0.0347 C.2     
   8 N8            -1.3542     1.7734     0.0301 N.am    
   9 N9            -1.3235    -0.4279     0.0124 N.am    
  10 O10           -3.3304     0.6453     0.0513 O.2     
  11 C11           -1.7801    -1.8199     0.0093 C.3     
  12 C12           -1.9253    -2.3123     1.4506 C.3     
  13 N13           -3.4931     6.8834     0.0915 N.pl3   
  14 C14           -4.8308     6.5803     0.1075 C.2     
  15 C15           -4.9979     5.2492     0.1009 C.2     
  16 C16           -3.6615     4.6469     0.0789 C.ar    
  17 C17           -3.1930     3.3321     0.0643 C.ar    
  18 C18           -1.8318     3.0926     0.0444 C.ar    
  19 C19           -0.9321     4.1567     0.0389 C.ar    
  20 C20           -1.3849     5.4570     0.0537 C.ar    
  21 C21           -2.7504     5.7179     0.0738 C.ar    
  22 S22           -3.9182     9.6436     0.1034 S.3     
  23 C23           -2.9653     8.1662     0.0878 C.2     
  24 N24           -1.7079     8.4438     0.0731 N.2     
  25 C25           -1.3483     9.7423     0.0721 C.ar    
  26 C26           -2.4450    10.6099     0.0879 C.ar    
  27 C27           -0.0523    10.2999     0.0581 C.ar    
  28 C28            0.1185    11.6613     0.0605 C.ar    
  29 C29           -0.9779    12.5107     0.0763 C.ar    
  30 C30           -2.2526    11.9891     0.0893 C.ar    
  31 H31            1.2635    -1.7465    -0.0190 H       
  32 H32            3.3476    -0.3890    -0.0316 H       
  33 H33            3.1908     2.0638    -0.0173 H       
  34 H34           -2.7438    -1.8851    -0.4958 H       
  35 H35           -1.0526    -2.4398    -0.5149 H       
  36 H36           -2.2650    -3.3480     1.4483 H       
  37 H37           -0.9615    -2.2472     1.9556 H       
  38 H38           -2.6527    -1.6925     1.9747 H       
  39 H39           -5.6308     7.3057     0.1231 H       
  40 H40           -5.9397     4.7208     0.1103 H       
  41 H41           -3.8898     2.5070     0.0694 H       
  42 H42            0.1296     3.9598     0.0233 H       
  43 H43           -0.6791     6.2745     0.0496 H       
  44 H44            0.8109     9.6510     0.0458 H       
  45 H45            1.1159    12.0754     0.0504 H       
  46 H46           -0.8322    13.5808     0.0784 H       
  47 H47           -3.1053    12.6517     0.1016 H       
@<TRIPOS>BOND
   1    1    2 ar
   2    1    6 ar
   3    1    8 1
   4    2    3 ar
   5    2    9 1
   6    3    4 ar
   7    3   31 1
   8    4    5 ar
   9    4   32 1
  10    5    6 ar
  11    5   33 1
  12    7    8 am
  13    7    9 am
  14    7   10 2
  15    8   18 1
  16    9   11 1
  17   11   12 1
  18   11   34 1
  19   11   35 1
  20   12   36 1
  21   12   37 1
  22   12   38 1
  23   13   14 1
  24   13   21 1
  25   13   23 1
  26   14   15 2
  27   14   39 1
  28   15   16 1
  29   15   40 1
  30   16   17 ar
  31   16   21 ar
  32   17   18 ar
  33   17   41 1
  34   18   19 ar
  35   19   20 ar
  36   19   42 1
  37   20   21 ar
  38   20   43 1
  39   22   23 1
  40   22   26 1
  41   23   24 2
  42   24   25 1
  43   25   26 ar
  44   25   27 ar
  45   26   30 ar
  46   27   28 ar
  47   27   44 1
  48   28   29 ar
  49   28   45 1
  50   29   30 ar
  51   29   46 1
  52   30   47 1

#	End of record

