#	Name: ASD01140412
#	Creating user name:	WinNT
#	Creation time:	15. 06. 2019 19:00

#	Modifying user name:	WinNT
#	Modification time:	15. 06. 2019 19:00

#	Program:	/corina/corina34_cracker 3.40 0067  02.08.2006

@<TRIPOS>MOLECULE
ASD01140412
  37   41    0    0    0
SMALL
NO_CHARGES


@<TRIPOS>ATOM
   1 C1            -0.0170     1.4030     0.0098 C.2     
   2 C2             0.0021    -0.0041     0.0020 C.2     
   3 C3             1.1978    -0.6510    -0.0129 C.2     
   4 C4             2.4012     0.0858    -0.0204 C.2     
   5 N5             2.3841     1.4010    -0.0132 N.2     
   6 N6             1.1716     2.0927     0.0021 N.pl3   
   7 N7            -0.4808     3.4867     0.0225 N.2     
   8 N8            -0.9881     2.3040     0.0186 N.2     
   9 C9             0.8371     3.4154     0.0120 C.2     
  10 N10            7.4348    -2.3972    -0.0776 N.pl3   
  11 C11            8.2483    -1.2970    -0.0803 C.2     
  12 C12            7.5063    -0.1787    -0.0686 C.2     
  13 C13            6.1021    -0.5974    -0.0576 C.ar    
  14 C14            4.8876     0.0876    -0.0437 C.ar    
  15 C15            3.6997    -0.6308    -0.0362 C.ar    
  16 C16            3.7255    -2.0298    -0.0430 C.ar    
  17 C17            4.9115    -2.7045    -0.0566 C.ar    
  18 C18            6.1155    -2.0050    -0.0639 C.ar    
  19 C19            1.7761     4.5565     0.0089 C.ar    
  20 C20            1.3183     5.8404    -0.2928 C.ar    
  21 C21            2.2001     6.9013    -0.2933 C.ar    
  22 C22            3.5355     6.6950     0.0041 C.ar    
  23 C23            3.9959     5.4251     0.3040 C.ar    
  24 C24            3.1237     4.3563     0.3134 C.ar    
  25 H25           -0.9219    -0.5633     0.0082 H       
  26 H26            1.2267    -1.7306    -0.0186 H       
  27 H27            7.7422    -3.3172    -0.0882 H       
  28 H28            9.3279    -1.3245    -0.0903 H       
  29 H29            7.8741     0.8367    -0.0675 H       
  30 H30            4.8712     1.1675    -0.0380 H       
  31 H31            2.7970    -2.5813    -0.0371 H       
  32 H32            4.9164    -3.7845    -0.0614 H       
  33 H33            0.2762     6.0027    -0.5255 H       
  34 H34            1.8473     7.8950    -0.5269 H       
  35 H35            4.2218     7.5290     0.0019 H       
  36 H36            5.0395     5.2709     0.5350 H       
  37 H37            3.4834     3.3663     0.5519 H       
@<TRIPOS>BOND
   1    1    2 1
   2    1    6 1
   3    1    8 2
   4    2    3 2
   5    2   25 1
   6    3    4 1
   7    3   26 1
   8    4    5 2
   9    4   15 1
  10    5    6 1
  11    6    9 1
  12    7    8 1
  13    7    9 2
  14    9   19 1
  15   10   11 1
  16   10   18 1
  17   10   27 1
  18   11   12 2
  19   11   28 1
  20   12   13 1
  21   12   29 1
  22   13   14 ar
  23   13   18 ar
  24   14   15 ar
  25   14   30 1
  26   15   16 ar
  27   16   17 ar
  28   16   31 1
  29   17   18 ar
  30   17   32 1
  31   19   20 ar
  32   19   24 ar
  33   20   21 ar
  34   20   33 1
  35   21   22 ar
  36   21   34 1
  37   22   23 ar
  38   22   35 1
  39   23   24 ar
  40   23   36 1
  41   24   37 1

#	End of record

