#	Name: ASD01820007
#	Creating user name:	WinNT
#	Creation time:	15. 06. 2019 19:36

#	Modifying user name:	WinNT
#	Modification time:	15. 06. 2019 19:36

#	Program:	/corina/corina34_cracker 3.40 0067  02.08.2006

@<TRIPOS>MOLECULE
ASD01820007
  67   67    0    0    0
SMALL
NO_CHARGES


@<TRIPOS>ATOM
   1 C1            -0.0167     1.3782     0.0096 C.ar    
   2 C2             0.0021    -0.0041     0.0020 C.ar    
   3 C3             1.2076    -0.6815    -0.0127 C.ar    
   4 C4             2.3963     0.0219    -0.0199 C.ar    
   5 C5             2.3802     1.4093    -0.0127 C.ar    
   6 C6             1.1697     2.0864     0.0021 C.ar    
   7 O7             3.5484     2.1036    -0.0193 O.3     
   8 C8             3.7096    -0.7170    -0.0349 C.3     
   9 C9             3.4557     3.5296    -0.0113 C.3     
  10 N10            4.2663    -0.7539     1.3240 N.3     
  11 C11            5.5498    -1.4681     1.3479 C.3     
  12 C12            6.0971    -1.4857     2.7766 C.3     
  13 C13            7.4339    -2.2296     2.8015 C.3     
  14 C14            7.9812    -2.2471     4.2301 C.3     
  15 C15            9.3180    -2.9910     4.2550 C.3     
  16 C16            9.8653    -3.0085     5.6837 C.3     
  17 N17           11.1488    -3.7228     5.7076 N.3     
  18 C18           11.7055    -3.7597     7.0665 C.3     
  19 C19           13.0389    -4.5098     7.0512 C.3     
  20 C20           13.6187    -4.5482     8.4666 C.3     
  21 C21           14.9521    -5.2984     8.4513 C.3     
  22 C22           15.5319    -5.3368     9.8667 C.3     
  23 C23           16.8653    -6.0870     9.8514 C.3     
  24 C24           17.4451    -6.1254    11.2667 C.3     
  25 C25           18.7785    -6.8755    11.2514 C.3     
  26 N26           19.3352    -6.9124    12.6104 N.3     
  27 H27           -0.9595     1.9050     0.0170 H       
  28 H28           -0.9263    -0.5558     0.0080 H       
  29 H29            1.2196    -1.7614    -0.0183 H       
  30 H30            1.1545     3.1663     0.0073 H       
  31 H31            3.5497    -1.7351    -0.3898 H       
  32 H32            4.4065    -0.2059    -0.6993 H       
  33 H33            2.9270     3.8543     0.8849 H       
  34 H34            4.4575     3.9589    -0.0178 H       
  35 H35            2.9117     3.8632    -0.8950 H       
  36 H36            4.3636     0.1772     1.7003 H       
  37 H37            5.4026    -2.4915     1.0026 H       
  38 H38            6.2594    -0.9622     0.6932 H       
  39 H39            6.2443    -0.4623     3.1219 H       
  40 H40            5.3876    -1.9916     3.4313 H       
  41 H41            7.2867    -3.2529     2.4562 H       
  42 H42            8.1435    -1.7237     2.1467 H       
  43 H43            8.1284    -1.2238     4.5754 H       
  44 H44            7.2716    -2.7530     4.8849 H       
  45 H45            9.1708    -4.0143     3.9097 H       
  46 H46           10.0275    -2.4851     3.6003 H       
  47 H47           10.0125    -1.9852     6.0290 H       
  48 H48            9.1557    -3.5144     6.3384 H       
  49 H49           11.0515    -4.6539     5.3313 H       
  50 H50           11.8654    -2.7416     7.4214 H       
  51 H51           11.0086    -4.2708     7.7308 H       
  52 H52           12.8789    -5.5279     6.6963 H       
  53 H53           13.7357    -3.9987     6.3869 H       
  54 H54           13.7786    -3.5301     8.8215 H       
  55 H55           12.9218    -5.0593     9.1309 H       
  56 H56           14.7921    -6.3165     8.0964 H       
  57 H57           15.6489    -4.7873     7.7870 H       
  58 H58           15.6918    -4.3187    10.2216 H       
  59 H59           14.8350    -5.8479    10.5310 H       
  60 H60           16.7053    -7.1051     9.4965 H       
  61 H61           17.5621    -5.5759     9.1870 H       
  62 H62           17.6050    -5.1073    11.6216 H       
  63 H63           16.7483    -6.6365    11.9311 H       
  64 H64           18.6185    -7.8936    10.8966 H       
  65 H65           19.4753    -6.3644    10.5871 H       
  66 H66           20.2167    -7.4030    12.6268 H       
  67 H67           19.4324    -5.9813    12.9867 H       
@<TRIPOS>BOND
   1    1    2 ar
   2    1    6 ar
   3    1   27 1
   4    2    3 ar
   5    2   28 1
   6    3    4 ar
   7    3   29 1
   8    4    5 ar
   9    4    8 1
  10    5    6 ar
  11    5    7 1
  12    6   30 1
  13    7    9 1
  14    8   10 1
  15    8   31 1
  16    8   32 1
  17    9   33 1
  18    9   34 1
  19    9   35 1
  20   10   11 1
  21   10   36 1
  22   11   12 1
  23   11   37 1
  24   11   38 1
  25   12   13 1
  26   12   39 1
  27   12   40 1
  28   13   14 1
  29   13   41 1
  30   13   42 1
  31   14   15 1
  32   14   43 1
  33   14   44 1
  34   15   16 1
  35   15   45 1
  36   15   46 1
  37   16   17 1
  38   16   47 1
  39   16   48 1
  40   17   18 1
  41   17   49 1
  42   18   19 1
  43   18   50 1
  44   18   51 1
  45   19   20 1
  46   19   52 1
  47   19   53 1
  48   20   21 1
  49   20   54 1
  50   20   55 1
  51   21   22 1
  52   21   56 1
  53   21   57 1
  54   22   23 1
  55   22   58 1
  56   22   59 1
  57   23   24 1
  58   23   60 1
  59   23   61 1
  60   24   25 1
  61   24   62 1
  62   24   63 1
  63   25   26 1
  64   25   64 1
  65   25   65 1
  66   26   66 1
  67   26   67 1

#	End of record

