#	Name: ASD01190150
#	Creating user name:	WinNT
#	Creation time:	15. 06. 2019 19:07

#	Modifying user name:	WinNT
#	Modification time:	15. 06. 2019 19:07

#	Program:	/corina/corina34_cracker 3.40 0067  02.08.2006

@<TRIPOS>MOLECULE
ASD01190150
  33   33    0    0    0
SMALL
NO_CHARGES


@<TRIPOS>ATOM
   1 S1            -0.0211     1.7055     0.0114 S.3     
   2 C2             0.0021    -0.0041     0.0020 C.2     
   3 N3             1.2191    -0.4324    -0.0119 N.2     
   4 C4             2.1752     0.4745    -0.0162 C.2     
   5 C5             1.7405     1.7382    -0.0052 C.2     
   6 C6            -1.2218    -0.8834     0.0090 C.3     
   7 O7            -1.5958    -1.1685     1.3584 O.3     
   8 Si8           -2.9149    -2.1179     1.4947 Si      
   9 C9            -4.3694    -1.2798     0.6866 C.3     
  10 C10           -2.5944    -3.7505     0.6563 C.3     
  11 C11           -3.2879    -2.4079     3.2968 C.3     
  12 C12           -3.5511    -1.0671     3.9853 C.3     
  13 C13           -4.5254    -3.2985     3.4246 C.3     
  14 C14           -2.0934    -3.0962     3.9604 C.3     
  15 H15            3.2241     0.2176    -0.0272 H       
  16 H16            2.3596     2.6231    -0.0064 H       
  17 H17           -2.0410    -0.3699    -0.4943 H       
  18 H18           -1.0025    -1.8154    -0.5120 H       
  19 H19           -4.1512    -1.1102    -0.3678 H       
  20 H20           -5.2510    -1.9143     0.7776 H       
  21 H21           -4.5569    -0.3247     1.1770 H       
  22 H22           -1.7435    -4.2408     1.1291 H       
  23 H23           -3.4761    -4.3849     0.7474 H       
  24 H24           -2.3762    -3.5808    -0.3980 H       
  25 H25           -4.4020    -0.5768     3.5125 H       
  26 H26           -3.7693    -1.2368     5.0396 H       
  27 H27           -2.6695    -0.4327     3.8942 H       
  28 H28           -4.3379    -4.2536     2.9341 H       
  29 H29           -4.7436    -3.4681     4.4790 H       
  30 H30           -5.3763    -2.8081     2.9518 H       
  31 H31           -1.2118    -2.4617     3.8694 H       
  32 H32           -2.3116    -3.2658     5.0148 H       
  33 H33           -1.9059    -4.0513     3.4700 H       
@<TRIPOS>BOND
   1    1    2 1
   2    1    5 1
   3    2    3 2
   4    2    6 1
   5    3    4 1
   6    4    5 2
   7    4   15 1
   8    5   16 1
   9    6    7 1
  10    6   17 1
  11    6   18 1
  12    7    8 1
  13    8    9 1
  14    8   10 1
  15    8   11 1
  16    9   19 1
  17    9   20 1
  18    9   21 1
  19   10   22 1
  20   10   23 1
  21   10   24 1
  22   11   12 1
  23   11   14 1
  24   11   13 1
  25   12   25 1
  26   12   26 1
  27   12   27 1
  28   13   28 1
  29   13   29 1
  30   13   30 1
  31   14   31 1
  32   14   32 1
  33   14   33 1

#	End of record

