#	Name: ASD03240242
#	Creating user name:	WinNT
#	Creation time:	15. 06. 2019 20:34

#	Modifying user name:	WinNT
#	Modification time:	15. 06. 2019 20:34

#	Program:	/corina/corina34_cracker 3.40 0067  02.08.2006

@<TRIPOS>MOLECULE
ASD03240242
  59   64    0    0    0
SMALL
NO_CHARGES


@<TRIPOS>ATOM
   1 C1             1.2318     0.6393    -1.0276 C.ar    
   2 C2             1.3910    -0.6873    -0.7289 C.ar    
   3 C3             2.6404    -1.1571    -0.3170 C.ar    
   4 N4             3.6787    -0.3399    -0.2095 N.ar    
   5 C5             3.5724     0.9480    -0.4871 C.ar    
   6 C6             2.3409     1.4870    -0.9078 C.ar    
   7 N7             4.4627     2.0039    -0.4629 N.pl3   
   8 C8             3.7757     3.1248    -0.8564 C.2     
   9 N9             2.5286     2.8113    -1.1166 N.2     
  10 C10            4.3526     4.4787    -0.9696 C.ar    
  11 C11            5.8152     1.9420    -0.1034 C.ar    
  12 C12            6.7144     1.2413    -0.8963 C.ar    
  13 C13            8.0473     1.1821    -0.5392 C.ar    
  14 C14            8.4866     1.8197     0.6065 C.ar    
  15 C15            7.5936     2.5182     1.3981 C.ar    
  16 C16            6.2605     2.5859     1.0433 C.ar    
  17 N17            4.2221     6.7957    -0.5022 N.ar    
  18 C18            3.7010     5.5837    -0.3976 C.ar    
  19 C19            5.5607     4.6836    -1.6434 C.ar    
  20 C20            6.0598     5.9727    -1.7219 C.ar    
  21 C21            5.3577     7.0111    -1.1382 C.ar    
  22 C22            9.9415     1.7526     0.9935 C.3     
  23 N23            2.5057     5.4038     0.2797 N.pl3   
  24 C24            2.8080    -2.5944     0.0058 C.ar    
  25 C25            4.0484    -3.0789     0.4183 C.ar    
  26 C26            4.1983    -4.4176     0.7179 C.ar    
  27 C27            3.1208    -5.2783     0.6093 C.ar    
  28 C28            1.8876    -4.8033     0.2005 C.ar    
  29 C29            1.7243    -3.4655    -0.0963 C.ar    
  30 C30           10.8969     2.2138    -0.1198 C.3     
  31 C31           10.4209     2.9703     1.8011 C.3     
  32 C32           11.7198     2.9043     0.9806 C.3     
  33 C33           10.3235     0.4304     1.6073 C.2     
  34 O34           11.2207    -0.2264     1.1231 O.2     
  35 N35            9.6679    -0.0223     2.6945 N.am    
  36 H36            0.2755     1.0222    -1.3521 H       
  37 H37            0.5553    -1.3665    -0.8110 H       
  38 H38            6.3718     0.7429    -1.7910 H       
  39 H39            8.7471     0.6370    -1.1553 H       
  40 H40            7.9397     3.0149     2.2926 H       
  41 H41            5.5644     3.1357     1.6595 H       
  42 H42            6.0915     3.8566    -2.0913 H       
  43 H43            6.9905     6.1655    -2.2347 H       
  44 H44            5.7480     8.0162    -1.2006 H       
  45 H45            2.0100     6.1730     0.6013 H       
  46 H46            2.1646     4.5086     0.4322 H       
  47 H47            4.8904    -2.4080     0.5028 H       
  48 H48            5.1588    -4.7941     1.0375 H       
  49 H49            3.2430    -6.3254     0.8441 H       
  50 H50            1.0499    -5.4799     0.1175 H       
  51 H51            0.7600    -3.0948    -0.4110 H       
  52 H52           11.4236     1.3951    -0.6101 H       
  53 H53           10.4418     2.9087    -0.8256 H       
  54 H54            9.8357     3.8719     1.6205 H       
  55 H55           10.5633     2.7623     2.8616 H       
  56 H56           12.4831     2.2635     1.4221 H       
  57 H57           12.1031     3.8825     0.6904 H       
  58 H58            9.0014     0.5349     3.1259 H       
  59 H59            9.8627    -0.9054     3.0455 H       
@<TRIPOS>BOND
   1    1    2 ar
   2    1    6 ar
   3    1   36 1
   4    2    3 ar
   5    2   37 1
   6    3    4 ar
   7    3   24 1
   8    4    5 ar
   9    5    7 1
  10    5    6 ar
  11    6    9 1
  12    7    8 1
  13    7   11 1
  14    8    9 2
  15    8   10 1
  16   10   19 ar
  17   10   18 ar
  18   11   12 ar
  19   11   16 ar
  20   12   13 ar
  21   12   38 1
  22   13   14 ar
  23   13   39 1
  24   14   15 ar
  25   14   22 1
  26   15   16 ar
  27   15   40 1
  28   16   41 1
  29   17   18 ar
  30   17   21 ar
  31   18   23 1
  32   19   20 ar
  33   19   42 1
  34   20   21 ar
  35   20   43 1
  36   21   44 1
  37   22   30 1
  38   22   31 1
  39   22   33 1
  40   23   45 1
  41   23   46 1
  42   24   25 ar
  43   24   29 ar
  44   25   26 ar
  45   25   47 1
  46   26   27 ar
  47   26   48 1
  48   27   28 ar
  49   27   49 1
  50   28   29 ar
  51   28   50 1
  52   29   51 1
  53   30   32 1
  54   30   52 1
  55   30   53 1
  56   31   32 1
  57   31   54 1
  58   31   55 1
  59   32   56 1
  60   32   57 1
  61   33   34 2
  62   33   35 am
  63   35   58 1
  64   35   59 1

#	End of record

