#	Name: ASD01028243
#	Creating user name:	WinNT
#	Creation time:	15. 06. 2019 18:56

#	Modifying user name:	WinNT
#	Modification time:	15. 06. 2019 18:56

#	Program:	/corina/corina34_cracker 3.40 0067  02.08.2006

@<TRIPOS>MOLECULE
ASD01028243
  60   65    0    0    0
SMALL
NO_CHARGES


@<TRIPOS>ATOM
   1 C1            -0.0166     1.3719     0.0096 C.ar    
   2 C2             0.0021    -0.0041     0.0020 C.ar    
   3 C3             1.1750     2.1035     0.0021 C.ar    
   4 C4             2.3797     1.4715    -0.0128 C.ar    
   5 C5             2.4326     0.0695    -0.0208 C.ar    
   6 C6             1.2322    -0.6815    -0.0134 C.ar    
   7 C7             3.6676    -0.6170    -0.0367 C.ar    
   8 C8             3.6411    -2.0003    -0.0444 C.ar    
   9 C9             2.4221    -2.6660    -0.0364 C.ar    
  10 N10            1.2804    -2.0188    -0.0211 N.ar    
  11 O11            4.8427     0.0593    -0.0447 O.3     
  12 C12            6.0400    -0.7207    -0.0607 C.3     
  13 C13            7.2364     0.1957    -0.0676 C.2     
  14 N14            7.8801     0.6745     1.0192 N.pl3   
  15 C15            8.9004     1.4611     0.5398 C.2     
  16 N16            8.8266     1.4211    -0.7805 N.2     
  17 N17            7.8431     0.6668    -1.1286 N.2     
  18 N18            7.7018     0.5210     2.3956 N.2     
  19 C19            8.5053     1.1250     3.2435 C.2     
  20 C20            9.5616     1.9395     2.7822 C.2     
  21 C21            9.7604     2.1071     1.4483 C.2     
  22 C22            8.2987     0.9488     4.7012 C.ar    
  23 C23            7.2575     0.1465     5.1671 C.ar    
  24 C24            9.1485     1.5804     5.6082 C.ar    
  25 C25            8.9545     1.4151     6.9630 C.ar    
  26 C26            7.9127     0.6196     7.4250 C.ar    
  27 C27            7.0674    -0.0157     6.5224 C.ar    
  28 O28           -1.2065     2.0271     0.0188 O.3     
  29 C29           -1.1606     3.4553     0.0263 C.3     
  30 N30            7.7179     0.4536     8.7989 N.am    
  31 C31            5.9386    -0.8776     7.0265 C.3     
  32 C32            6.9418     1.2478     9.5564 C.2     
  33 C33            6.9701     0.7832    10.9958 C.3     
  34 C34            8.2006    -0.1505    11.0688 C.3     
  35 C35            8.3296    -0.6140     9.5989 C.3     
  36 O36            6.3109     2.1987     9.1457 O.2     
  37 H37           -0.9239    -0.5598     0.0082 H       
  38 H38            1.1387     3.1829     0.0079 H       
  39 H39            3.2932     2.0476    -0.0188 H       
  40 H40            4.5646    -2.5602    -0.0569 H       
  41 H41            2.4134    -3.7460    -0.0425 H       
  42 H42            6.0728    -1.3543     0.8256 H       
  43 H43            6.0552    -1.3447    -0.9543 H       
  44 H44           10.2133     2.4296     3.4903 H       
  45 H45           10.5669     2.7294     1.0897 H       
  46 H46            6.6004    -0.3470     4.4663 H       
  47 H47            9.9585     2.1983     5.2497 H       
  48 H48            9.6128     1.9039     7.6660 H       
  49 H49           -2.1761     3.8514     0.0333 H       
  50 H50           -0.6312     3.7971     0.9157 H       
  51 H51           -0.6396     3.8068    -0.8642 H       
  52 H52            5.0447    -0.2672     7.1544 H       
  53 H53            5.7372    -1.6704     6.3062 H       
  54 H54            6.2175    -1.3184     7.9836 H       
  55 H55            7.0949     1.6319    11.6683 H       
  56 H56            6.0599     0.2343    11.2375 H       
  57 H57            9.0872     0.3969    11.3886 H       
  58 H58            8.0087    -0.9980    11.7269 H       
  59 H59            7.7991    -1.5548     9.4521 H       
  60 H60            9.3798    -0.7264     9.3297 H       
@<TRIPOS>BOND
   1    1    2 ar
   2    1    3 ar
   3    1   28 1
   4    2    6 ar
   5    2   37 1
   6    3    4 ar
   7    3   38 1
   8    4    5 ar
   9    4   39 1
  10    5    6 ar
  11    5    7 ar
  12    6   10 ar
  13    7    8 ar
  14    7   11 1
  15    8    9 ar
  16    8   40 1
  17    9   10 ar
  18    9   41 1
  19   11   12 1
  20   12   13 1
  21   12   42 1
  22   12   43 1
  23   13   14 1
  24   13   17 2
  25   14   15 1
  26   14   18 1
  27   15   16 2
  28   15   21 1
  29   16   17 1
  30   18   19 2
  31   19   20 1
  32   19   22 1
  33   20   21 2
  34   20   44 1
  35   21   45 1
  36   22   23 ar
  37   22   24 ar
  38   23   27 ar
  39   23   46 1
  40   24   25 ar
  41   24   47 1
  42   25   26 ar
  43   25   48 1
  44   26   27 ar
  45   26   30 1
  46   27   31 1
  47   28   29 1
  48   29   49 1
  49   29   50 1
  50   29   51 1
  51   30   32 am
  52   30   35 1
  53   31   52 1
  54   31   53 1
  55   31   54 1
  56   32   33 1
  57   32   36 2
  58   33   34 1
  59   33   55 1
  60   33   56 1
  61   34   35 1
  62   34   57 1
  63   34   58 1
  64   35   59 1
  65   35   60 1

#	End of record

