#	Name: ASD03490008
#	Creating user name:	WinNT
#	Creation time:	15. 06. 2019 20:42

#	Modifying user name:	WinNT
#	Modification time:	15. 06. 2019 20:42

#	Program:	/corina/corina34_cracker 3.40 0067  02.08.2006

@<TRIPOS>MOLECULE
ASD03490008
  76   80    0    0    0
SMALL
NO_CHARGES


@<TRIPOS>ATOM
   1 C1            -0.1355     1.2510     0.1253 C.2     
   2 C2            -0.1924    -0.1100     0.1357 C.2     
   3 C3            -1.5388    -0.4828     0.1544 C.2     
   4 N4            -2.2705     0.6026     0.1554 N.2     
   5 N5            -1.4163     1.7127     0.1432 N.pl3   
   6 N6             1.0196     2.0270     0.1059 N.am    
   7 C7             2.2281     1.4392     0.2073 C.2     
   8 C8             3.4646     2.2698     0.1866 C.2     
   9 C9             4.7699     1.6453     0.4092 C.ar    
  10 C10            5.9771     2.4655     0.5338 C.ar    
  11 C11            7.2205     1.8264     0.7485 C.ar    
  12 C12            7.2706     0.4177     0.8372 C.ar    
  13 C13            6.1166    -0.3340     0.7158 C.ar    
  14 C14            4.8853     0.2565     0.5125 C.ar    
  15 C15            5.9230     3.8596     0.4444 C.ar    
  16 C16            7.0705     4.5889     0.5653 C.ar    
  17 C17            8.2949     3.9629     0.7761 C.ar    
  18 C18            8.3812     2.6055     0.8688 C.ar    
  19 O19            8.4574    -0.2010     1.0421 O.3     
  20 C20            8.4399    -1.6277     1.1222 C.3     
  21 C21            9.8617    -2.1429     1.3546 C.3     
  22 N22           10.3398    -1.6859     2.6663 N.3     
  23 C23           11.6000    -2.3506     3.0286 C.3     
  24 C24           12.0922    -1.8028     4.3708 C.3     
  25 O25           11.0761    -1.9930     5.3591 O.3     
  26 C26            9.8353    -1.3583     5.0386 C.3     
  27 C27            9.3202    -1.9016     3.7032 C.3     
  28 C28           -2.0608    -1.8964     0.1703 C.3     
  29 C29           -1.8705    -2.4947     1.5656 C.3     
  30 C30           -3.5489    -1.8947    -0.1852 C.3     
  31 C31           -1.2929    -2.7351    -0.8533 C.3     
  32 O32            2.3092     0.2324     0.3154 O.2     
  33 O33            3.3897     3.4662    -0.0152 O.2     
  34 C34           -1.8097     3.0578     0.1409 C.ar    
  35 C35           -2.7603     3.5028    -0.7677 C.ar    
  36 C36           -3.1464     4.8292    -0.7672 C.ar    
  37 C37           -2.5867     5.7132     0.1366 C.ar    
  38 C38           -1.6391     5.2729     1.0426 C.ar    
  39 C39           -1.2536     3.9469     1.0512 C.ar    
  40 C40           -3.3701     2.5401    -1.7538 C.3     
  41 H41            0.6533    -0.7817     0.1304 H       
  42 H42            0.9549     2.9910     0.0195 H       
  43 H43            6.1792    -1.4099     0.7866 H       
  44 H44            4.0042    -0.3615     0.4222 H       
  45 H45            4.9784     4.3569     0.2802 H       
  46 H46            7.0274     5.6658     0.4960 H       
  47 H47            9.1896     4.5608     0.8683 H       
  48 H48            9.3381     2.1323     1.0330 H       
  49 H49            7.8015    -1.9374     1.9496 H       
  50 H50            8.0522    -2.0392     0.1903 H       
  51 H51            9.8623    -3.2326     1.3272 H       
  52 H52           10.5192    -1.7594     0.5744 H       
  53 H53           11.4339    -3.4246     3.1127 H       
  54 H54           12.3481    -2.1565     2.2599 H       
  55 H55           12.9959    -2.3332     4.6711 H       
  56 H56           12.3095    -0.7392     4.2722 H       
  57 H57            9.1066    -1.5672     5.8219 H       
  58 H58            9.9869    -0.2818     4.9594 H       
  59 H59            8.4041    -1.3797     3.4269 H       
  60 H60            9.1177    -2.9684     3.7981 H       
  61 H61           -2.4175    -1.8972     2.2948 H       
  62 H62           -2.2480    -3.5172     1.5771 H       
  63 H63           -0.8103    -2.4959     1.8188 H       
  64 H64           -3.6845    -1.4684    -1.1792 H       
  65 H65           -3.9264    -2.9171    -0.1737 H       
  66 H66           -4.0960    -1.2971     0.5441 H       
  67 H67           -0.2327    -2.7364    -0.6000 H       
  68 H68           -1.6704    -3.7576    -0.8418 H       
  69 H69           -1.4285    -2.3089    -1.8473 H       
  70 H70           -3.8859     5.1760    -1.4738 H       
  71 H71           -2.8898     6.7498     0.1348 H       
  72 H72           -1.2031     5.9660     1.7469 H       
  73 H73           -0.5138     3.6036     1.7592 H       
  74 H74           -4.3084     2.1559    -1.3537 H       
  75 H75           -3.5606     3.0560    -2.6949 H       
  76 H76           -2.6824     1.7122    -1.9260 H       
@<TRIPOS>BOND
   1    1    2 2
   2    1    6 1
   3    1    5 1
   4    2    3 1
   5    2   41 1
   6    3    4 2
   7    3   28 1
   8    4    5 1
   9    5   34 1
  10    6    7 am
  11    6   42 1
  12    7    8 1
  13    7   32 2
  14    8    9 1
  15    8   33 2
  16    9   10 ar
  17    9   14 ar
  18   10   11 ar
  19   10   15 ar
  20   11   12 ar
  21   11   18 ar
  22   12   13 ar
  23   12   19 1
  24   13   14 ar
  25   13   43 1
  26   14   44 1
  27   15   16 ar
  28   15   45 1
  29   16   17 ar
  30   16   46 1
  31   17   18 ar
  32   17   47 1
  33   18   48 1
  34   19   20 1
  35   20   21 1
  36   20   49 1
  37   20   50 1
  38   21   22 1
  39   21   51 1
  40   21   52 1
  41   22   23 1
  42   22   27 1
  43   23   24 1
  44   23   53 1
  45   23   54 1
  46   24   25 1
  47   24   55 1
  48   24   56 1
  49   25   26 1
  50   26   27 1
  51   26   57 1
  52   26   58 1
  53   27   59 1
  54   27   60 1
  55   28   29 1
  56   28   30 1
  57   28   31 1
  58   29   61 1
  59   29   62 1
  60   29   63 1
  61   30   64 1
  62   30   65 1
  63   30   66 1
  64   31   67 1
  65   31   68 1
  66   31   69 1
  67   34   35 ar
  68   34   39 ar
  69   35   36 ar
  70   35   40 1
  71   36   37 ar
  72   36   70 1
  73   37   38 ar
  74   37   71 1
  75   38   39 ar
  76   38   72 1
  77   39   73 1
  78   40   74 1
  79   40   75 1
  80   40   76 1

#	End of record

