#	Name: ASD01411486
#	Creating user name:	WinNT
#	Creation time:	15. 06. 2019 19:19

#	Modifying user name:	WinNT
#	Modification time:	15. 06. 2019 19:19

#	Program:	/corina/corina34_cracker 3.40 0067  02.08.2006

@<TRIPOS>MOLECULE
ASD01411486
  73   76    0    0    0
SMALL
NO_CHARGES


@<TRIPOS>ATOM
   1 C1            -3.7972     3.7459    -1.1399 C.ar    
   2 C2            -2.7399     2.8653    -0.9447 C.ar    
   3 C3            -2.9829     1.5385    -0.6450 C.ar    
   4 C4            -4.2894     1.0762    -0.5368 C.ar    
   5 C5            -5.3595     1.9614    -0.7325 C.ar    
   6 C6            -5.1023     3.3023    -1.0300 C.ar    
   7 O7            -3.5474     5.0495    -1.4344 O.3     
   8 C8            -3.8417     5.9826    -0.4945 C.ar    
   9 N9            -4.5352    -0.2635    -0.2351 N.am    
  10 C10           -4.5389    -0.7115     1.1597 C.3     
  11 C11           -3.4745    -1.7939     1.3505 C.3     
  12 C12           -5.9149    -1.2823     1.5085 C.3     
  13 N13           -4.2579     5.5993     0.7014 N.ar    
  14 C14           -4.7693    -1.1456    -1.2268 C.2     
  15 O15           -4.8898    -2.3255    -0.9730 O.2     
  16 C16           -4.8814    -0.6659    -2.6510 C.3     
  17 C17           -3.6977     7.3310    -0.7950 C.ar    
  18 C18           -4.0009     8.2728     0.1730 C.ar    
  19 C19           -4.4394     7.8299     1.4131 C.ar    
  20 C20           -4.5542     6.4732     1.6442 C.ar    
  21 C21           -4.7806     8.8188     2.4979 C.3     
  22 C22           -5.7148    -1.6615    -3.4604 C.3     
  23 N23           -7.1509     8.5613     3.0037 N.2     
  24 N24           -6.1973     9.1794     2.4019 N.pl3   
  25 C25           -5.8286    -1.1745    -4.9064 C.3     
  26 C26           -8.2887     9.1437     2.7000 C.2     
  27 C27           -7.9625    10.1970     1.8425 C.2     
  28 N28           -6.6566    10.1573     1.7043 N.2     
  29 F29           -1.9491     0.6892    -0.4572 F       
  30 C30           -4.4308    -1.0632    -5.5185 C.3     
  31 C31           -3.5974    -0.0675    -4.7091 C.3     
  32 C32           -3.4836    -0.5546    -3.2631 C.3     
  33 C33           -4.5446    -0.5761    -6.9644 C.3     
  34 C34           -3.2174     7.7627    -2.1566 C.3     
  35 F35           -3.1572     9.1595    -2.2086 F       
  36 F36           -1.9445     7.2321    -2.3920 F       
  37 F37           -4.1045     7.2975    -3.1332 F       
  38 C38           -6.7484     1.4809    -0.6199 C.2     
  39 O39           -6.9714     0.2946    -0.4799 O.2     
  40 O40           -7.7709     2.3571    -0.6721 O.3     
  41 O41           -2.1765    -1.2210     1.1793 O.3     
  42 C42           -1.1046    -2.1526     1.3377 C.3     
  43 H43           -1.7232     3.2198    -1.0281 H       
  44 H44           -5.9217     3.9894    -1.1819 H       
  45 H45           -4.3196     0.1329     1.8132 H       
  46 H46           -3.5575    -2.2123     2.3536 H       
  47 H47           -3.6231    -2.5835     0.6140 H       
  48 H48           -6.1226    -2.1435     0.8733 H       
  49 H49           -5.9260    -1.5908     2.5538 H       
  50 H50           -6.6764    -0.5194     1.3466 H       
  51 H51           -5.3646     0.3110    -2.6684 H       
  52 H52           -3.8982     9.3282    -0.0320 H       
  53 H53           -4.8950     6.1234     2.6074 H       
  54 H54           -4.5848     8.3712     3.4722 H       
  55 H55           -4.1691     9.7133     2.3795 H       
  56 H56           -5.2316    -2.6385    -3.4430 H       
  57 H57           -6.7106    -1.7409    -3.0243 H       
  58 H58           -6.4223    -1.8838    -5.4830 H       
  59 H59           -6.3117    -0.1976    -4.9238 H       
  60 H60           -9.2742     8.8653     3.0430 H       
  61 H61           -8.6440    10.9000     1.3868 H       
  62 H62           -3.9476    -2.0401    -5.5011 H       
  63 H63           -2.6016     0.0118    -5.1452 H       
  64 H64           -4.0806     0.9094    -4.7265 H       
  65 H65           -2.8899     0.1547    -2.6865 H       
  66 H66           -3.0005    -1.5315    -3.2457 H       
  67 H67           -5.0277     0.4008    -6.9818 H       
  68 H68           -3.5488    -0.4968    -7.4005 H       
  69 H69           -5.1383    -1.2854    -7.5411 H       
  70 H70           -8.6640     1.9947    -0.5938 H       
  71 H71           -1.1384    -2.5785     2.3405 H       
  72 H72           -1.2041    -2.9497     0.6009 H       
  73 H73           -0.1535    -1.6402     1.1925 H       
@<TRIPOS>BOND
   1    1    2 ar
   2    1    7 1
   3    1    6 ar
   4    2    3 ar
   5    2   43 1
   6    3    4 ar
   7    3   29 1
   8    4    5 ar
   9    4    9 1
  10    5    6 ar
  11    5   38 1
  12    6   44 1
  13    7    8 1
  14    8   17 ar
  15    8   13 ar
  16    9   10 1
  17    9   14 am
  18   10   11 1
  19   10   12 1
  20   10   45 1
  21   11   41 1
  22   11   46 1
  23   11   47 1
  24   12   48 1
  25   12   49 1
  26   12   50 1
  27   13   20 ar
  28   14   15 2
  29   14   16 1
  30   16   22 1
  31   16   32 1
  32   16   51 1
  33   17   18 ar
  34   17   34 1
  35   18   19 ar
  36   18   52 1
  37   19   20 ar
  38   19   21 1
  39   20   53 1
  40   21   24 1
  41   21   54 1
  42   21   55 1
  43   22   25 1
  44   22   56 1
  45   22   57 1
  46   23   24 1
  47   23   26 2
  48   24   28 1
  49   25   30 1
  50   25   58 1
  51   25   59 1
  52   26   27 1
  53   26   60 1
  54   27   28 2
  55   27   61 1
  56   30   31 1
  57   30   33 1
  58   30   62 1
  59   31   32 1
  60   31   63 1
  61   31   64 1
  62   32   65 1
  63   32   66 1
  64   33   67 1
  65   33   68 1
  66   33   69 1
  67   34   35 1
  68   34   36 1
  69   34   37 1
  70   38   39 2
  71   38   40 1
  72   40   70 1
  73   41   42 1
  74   42   71 1
  75   42   72 1
  76   42   73 1

#	End of record

