#	Name: ASD03090697
#	Creating user name:	WinNT
#	Creation time:	15. 06. 2019 20:29

#	Modifying user name:	WinNT
#	Modification time:	15. 06. 2019 20:29

#	Program:	/corina/corina34_cracker 3.40 0067  02.08.2006

@<TRIPOS>MOLECULE
ASD03090697
  36   37    0    0    0
SMALL
NO_CHARGES


@<TRIPOS>ATOM
   1 N1            -0.1108     1.2545     0.5840 N.am    
   2 C2            -0.1493    -0.0927     0.5718 C.2     
   3 O3             0.7938    -0.7317     0.9970 O.2     
   4 N4            -1.2331    -0.7315     0.0884 N.am    
   5 C5            -1.2265    -2.1295    -0.0353 C.ar    
   6 C6            -2.4272    -2.8351    -0.0319 C.ar    
   7 C7            -2.4184    -4.2146    -0.1540 C.ar    
   8 C8            -1.2148    -4.8916    -0.2795 C.ar    
   9 C9            -0.0180    -4.1876    -0.2829 C.ar    
  10 C10           -0.0246    -2.8089    -0.1668 C.ar    
  11 O11           -1.2065    -6.2466    -0.3990 O.3     
  12 C12           -2.4739    -6.9067    -0.3875 C.3     
  13 O13           -3.6072    -2.1700     0.0917 O.3     
  14 C14           -4.7995    -2.9578     0.0874 C.3     
  15 F15            1.1536    -4.8489    -0.4053 F       
  16 C16            1.4339     3.1155     0.6553 C.ar    
  17 C17            0.9614     1.9166     1.1840 C.ar    
  18 C18            1.5713     1.3861     2.3192 C.ar    
  19 C19            2.6300     2.0754     2.8813 C.ar    
  20 C20            3.0492     3.2713     2.2966 C.ar    
  21 N21            2.4426     3.7460     1.2138 N.ar    
  22 C22            4.1442     3.9945     2.8699 C.1     
  23 N23            5.0129     4.5682     3.3246 N.1     
  24 H24           -0.8263     1.7639     0.1723 H       
  25 H25           -2.0176    -0.2251    -0.1741 H       
  26 H26           -3.3489    -4.7630    -0.1512 H       
  27 H27            0.9067    -2.2620    -0.1743 H       
  28 H28           -2.9832    -6.6988     0.5535 H       
  29 H29           -3.0804    -6.5432    -1.2170 H       
  30 H30           -2.3247    -7.9815    -0.4901 H       
  31 H31           -4.8693    -3.5061    -0.8521 H       
  32 H32           -4.7721    -3.6628     0.9183 H       
  33 H33           -5.6664    -2.3055     0.1927 H       
  34 H34            0.9686     3.5297    -0.2269 H       
  35 H35            1.2249     0.4583     2.7501 H       
  36 H36            3.1257     1.6935     3.7615 H       
@<TRIPOS>BOND
   1    1    2 am
   2    1   17 1
   3    1   24 1
   4    2    3 2
   5    2    4 am
   6    4    5 1
   7    4   25 1
   8    5    6 ar
   9    5   10 ar
  10    6    7 ar
  11    6   13 1
  12    7    8 ar
  13    7   26 1
  14    8    9 ar
  15    8   11 1
  16    9   10 ar
  17    9   15 1
  18   10   27 1
  19   11   12 1
  20   12   28 1
  21   12   29 1
  22   12   30 1
  23   13   14 1
  24   14   31 1
  25   14   32 1
  26   14   33 1
  27   16   17 ar
  28   16   21 ar
  29   16   34 1
  30   17   18 ar
  31   18   19 ar
  32   18   35 1
  33   19   20 ar
  34   19   36 1
  35   20   21 ar
  36   20   22 1
  37   22   23 3

#	End of record

