#	Name: ASD02560276
#	Creating user name:	WinNT
#	Creation time:	15. 06. 2019 20:25

#	Modifying user name:	WinNT
#	Modification time:	15. 06. 2019 20:25

#	Program:	/corina/corina34_cracker 3.40 0067  02.08.2006

@<TRIPOS>MOLECULE
ASD02560276
  48   50    0    0    0
SMALL
NO_CHARGES


@<TRIPOS>ATOM
   1 N1             0.4576     1.3222    -0.0973 N.ar    
   2 C2             0.4465    -0.0061    -0.0963 C.ar    
   3 C3             1.6418    -0.6912     0.1151 C.ar    
   4 C4             2.7941     0.0457     0.3157 C.ar    
   5 N5             2.7255     1.3687     0.3007 N.ar    
   6 C6             1.5789     1.9860     0.0981 C.ar    
   7 O7            -0.7093    -0.6847    -0.2972 O.3     
   8 C8            -1.8437     0.0338    -0.4975 C.ar    
   9 C9            -4.1588     1.5006    -0.9062 C.ar    
  10 C10           -3.7793     1.1365     0.3887 C.ar    
  11 C11           -2.6275     0.4080     0.5874 C.ar    
  12 C12           -2.2148     0.3978    -1.7863 C.ar    
  13 C13           -3.3647     1.1271    -1.9939 C.ar    
  14 C14           -2.2168     0.0156     1.9833 C.3     
  15 C15           -1.3577    -0.0055    -2.9583 C.3     
  16 C16           -5.3556     2.2580    -1.1175 C.1     
  17 N17           -6.3050     2.8588    -1.2851 N.1     
  18 S18            1.5445     3.7477     0.0875 S.o2    
  19 C19            1.2316     4.2047     1.8149 C.3     
  20 C20            1.1794     5.7059     1.9358 C.2     
  21 N21            0.9569     6.2780     3.1356 N.am    
  22 C22            1.0053     7.6703     3.2666 C.ar    
  23 O23            1.3378     6.3993     0.9533 O.2     
  24 C24            0.5989     9.8564     2.3679 C.ar    
  25 C25            0.5501     8.4822     2.2362 C.ar    
  26 C26            1.5034     8.2427     4.4297 C.ar    
  27 C27            1.5498     9.6182     4.5558 C.ar    
  28 C28            1.1004    10.4243     3.5242 C.ar    
  29 O29            2.8604     4.1216    -0.2967 O.2     
  30 O30            0.4243     4.0714    -0.7247 O.2     
  31 Cl31           2.1716    10.3355     6.0093 Cl      
  32 H32            1.6671    -1.7709     0.1223 H       
  33 H33            3.7385    -0.4509     0.4830 H       
  34 H34           -4.3902     1.4231     1.2319 H       
  35 H35           -3.6543     1.4064    -2.9961 H       
  36 H36           -2.6543    -0.9511     2.2326 H       
  37 H37           -1.1302    -0.0527     2.0367 H       
  38 H38           -2.5688     0.7669     2.6903 H       
  39 H39           -1.6871    -0.9747    -3.3329 H       
  40 H40           -1.4491     0.7396    -3.7487 H       
  41 H41           -0.3171    -0.0731    -2.6412 H       
  42 H42            0.2801     3.7810     2.1362 H       
  43 H43            2.0328     3.8171     2.4441 H       
  44 H44            0.7631     5.7246     3.9083 H       
  45 H45            0.2453    10.4879     1.5663 H       
  46 H46            0.1584     8.0395     1.3322 H       
  47 H47            1.8536     7.6138     5.2348 H       
  48 H48            1.1378    11.4990     3.6244 H       
@<TRIPOS>BOND
   1    1    2 ar
   2    1    6 ar
   3    2    3 ar
   4    2    7 1
   5    3    4 ar
   6    3   32 1
   7    4    5 ar
   8    4   33 1
   9    5    6 ar
  10    6   18 1
  11    7    8 1
  12    8   12 ar
  13    8   11 ar
  14    9   10 ar
  15    9   13 ar
  16    9   16 1
  17   10   11 ar
  18   10   34 1
  19   11   14 1
  20   12   13 ar
  21   12   15 1
  22   13   35 1
  23   14   36 1
  24   14   37 1
  25   14   38 1
  26   15   39 1
  27   15   40 1
  28   15   41 1
  29   16   17 3
  30   18   19 1
  31   18   29 2
  32   18   30 2
  33   19   20 1
  34   19   42 1
  35   19   43 1
  36   20   21 am
  37   20   23 2
  38   21   22 1
  39   21   44 1
  40   22   26 ar
  41   22   25 ar
  42   24   25 ar
  43   24   28 ar
  44   24   45 1
  45   25   46 1
  46   26   27 ar
  47   26   47 1
  48   27   28 ar
  49   27   31 1
  50   28   48 1

#	End of record

