#	Name: ASD01148156
#	Creating user name:	WinNT
#	Creation time:	15. 06. 2019 19:02

#	Modifying user name:	WinNT
#	Modification time:	15. 06. 2019 19:02

#	Program:	/corina/corina34_cracker 3.40 0067  02.08.2006

@<TRIPOS>MOLECULE
ASD01148156
  54   56    0    0    0
SMALL
NO_CHARGES


@<TRIPOS>ATOM
   1 C1            -0.0059     1.4611     0.1055 C.2     
   2 C2             0.0048    -0.0028     0.0210 C.2     
   3 C3            -1.2553    -0.7501     0.0835 C.2     
   4 O4             1.0423     2.0740     0.1727 O.2     
   5 O5            -1.1779     2.1280     0.1029 O.3     
   6 O6            -1.2464    -1.9641     0.0135 O.2     
   7 O7            -2.4240    -0.0911     0.2186 O.3     
   8 C8             1.2029    -0.6784    -0.1174 C.2     
   9 N9             2.3443     0.0089    -0.3277 N.pl3   
  10 C10            3.6259    -2.0343    -0.1453 C.ar    
  11 C11            3.5727    -0.6625    -0.3442 C.ar    
  12 C12            4.7577     0.0394    -0.5612 C.ar    
  13 C13            5.9479    -0.6644    -0.5698 C.ar    
  14 C14            5.9239    -2.0396    -0.3631 C.ar    
  15 N15            4.7796    -2.6738    -0.1600 N.ar    
  16 N16            7.1164    -2.7574    -0.3702 N.pl3   
  17 C17            9.5592    -2.8509     0.0296 C.3     
  18 C18            8.3873    -2.0641    -0.5946 C.3     
  19 C19            8.7526    -2.0598    -2.0942 C.3     
  20 C20           10.2603    -2.1880    -2.1350 C.ar    
  21 C21           11.1559    -1.9276    -3.1588 C.ar    
  22 C22           12.5094    -2.1205    -2.9642 C.ar    
  23 C23           12.9730    -2.5752    -1.7436 C.ar    
  24 C24           12.0816    -2.8355    -0.7214 C.ar    
  25 C25           10.7238    -2.6426    -0.9147 C.ar    
  26 C26           -1.1126     3.5759     0.1891 C.3     
  27 C27           -2.5298     4.1523     0.1727 C.3     
  28 C28           -3.6317    -0.8953     0.2734 C.3     
  29 C29           -4.8477     0.0205     0.4271 C.3     
  30 H30            1.2250    -1.7565    -0.0572 H       
  31 H31            2.3140     0.9683    -0.4674 H       
  32 H32            2.7128    -2.5844     0.0279 H       
  33 H33            4.7462     1.1077    -0.7193 H       
  34 H34            6.8844    -0.1527    -0.7353 H       
  35 H35            7.1060    -3.7166    -0.2266 H       
  36 H36            9.7973    -2.4550     1.0168 H       
  37 H37            9.3109    -3.9102     0.0958 H       
  38 H38            8.3481    -1.0490    -0.1994 H       
  39 H39            8.2873    -2.9063    -2.5993 H       
  40 H40            8.4400    -1.1238    -2.5570 H       
  41 H41           10.7945    -1.5727    -4.1127 H       
  42 H42           13.2051    -1.9168    -3.7647 H       
  43 H43           14.0311    -2.7270    -1.5897 H       
  44 H44           12.4444    -3.1906     0.2318 H       
  45 H45           -0.6145     3.8627     1.1152 H       
  46 H46           -0.5521     3.9656    -0.6607 H       
  47 H47           -3.0904     3.7626     1.0225 H       
  48 H48           -2.4808     5.2392     0.2374 H       
  49 H49           -3.0280     3.8655    -0.7534 H       
  50 H50           -3.7257    -1.4728    -0.6462 H       
  51 H51           -3.5780    -1.5739     1.1247 H       
  52 H52           -4.7537     0.5981     1.3467 H       
  53 H53           -4.9014     0.6991    -0.4243 H       
  54 H54           -5.7543    -0.5832     0.4682 H       
@<TRIPOS>BOND
   1    1    2 1
   2    1    4 2
   3    1    5 1
   4    2    3 1
   5    2    8 2
   6    3    6 2
   7    3    7 1
   8    5   26 1
   9    7   28 1
  10    8    9 1
  11    8   30 1
  12    9   11 1
  13    9   31 1
  14   10   11 ar
  15   10   15 ar
  16   10   32 1
  17   11   12 ar
  18   12   13 ar
  19   12   33 1
  20   13   14 ar
  21   13   34 1
  22   14   15 ar
  23   14   16 1
  24   16   18 1
  25   16   35 1
  26   17   18 1
  27   17   25 1
  28   17   36 1
  29   17   37 1
  30   18   19 1
  31   18   38 1
  32   19   20 1
  33   19   39 1
  34   19   40 1
  35   20   21 ar
  36   20   25 ar
  37   21   22 ar
  38   21   41 1
  39   22   23 ar
  40   22   42 1
  41   23   24 ar
  42   23   43 1
  43   24   25 ar
  44   24   44 1
  45   26   27 1
  46   26   45 1
  47   26   46 1
  48   27   47 1
  49   27   48 1
  50   27   49 1
  51   28   29 1
  52   28   50 1
  53   28   51 1
  54   29   52 1
  55   29   53 1
  56   29   54 1

#	End of record

