#	Name: ASD00120073
#	Creating user name:	WinNT
#	Creation time:	15. 06. 2019 18:31

#	Modifying user name:	WinNT
#	Modification time:	15. 06. 2019 18:31

#	Program:	/corina/corina34_cracker 3.40 0067  02.08.2006

@<TRIPOS>MOLECULE
ASD00120073
  70   74    0    0    0
SMALL
NO_CHARGES


@<TRIPOS>ATOM
   1 N1            -0.5398     2.3549    -0.3862 N.3     
   2 C2            -0.3760     0.8970    -0.4606 C.3     
   3 C3            -1.7254     0.2205    -0.1964 C.3     
   4 N4            -2.7193     0.7828    -1.1234 N.am    
   5 C5            -2.8452     2.2459    -1.2050 C.3     
   6 C6            -1.4517     2.8426    -1.4295 C.3     
   7 C7             0.7598     3.0353    -0.4629 C.3     
   8 S8            -3.6710    -0.2053    -2.0509 S.o2    
   9 O9            -4.0818     0.5683    -3.1699 O.2     
  10 O10           -2.9727    -1.4370    -2.1717 O.2     
  11 C11           -5.1281    -0.5485    -1.1215 C.ar    
  12 C12           -6.2308     0.2774    -1.2350 C.ar    
  13 C13           -7.3739     0.0081    -0.5058 C.ar    
  14 C14           -7.4145    -1.0871     0.3366 C.ar    
  15 C15           -6.3120    -1.9135     0.4494 C.ar    
  16 C16           -5.1705    -1.6467    -0.2831 C.ar    
  17 C17           -8.6603    -1.3801     1.1323 C.3     
  18 C18           -9.1947    -2.7625     0.7525 C.3     
  19 C19           -9.6564    -2.7478    -0.7061 C.3     
  20 C20          -10.0681    -4.1646    -1.1429 C.3     
  21 C21          -11.5563    -4.0877    -1.5421 C.3     
  22 C22          -11.7758    -2.5979    -1.9046 C.3     
  23 C23          -10.9088    -1.8594    -0.8550 C.3     
  24 C24           -8.3344    -1.3542     2.6034 C.2     
  25 O25           -7.1852    -1.2230     2.9677 O.2     
  26 N26           -9.3202    -1.4768     3.5142 N.am    
  27 C27           -9.0354    -1.3518     4.8648 C.2     
  28 N28           -9.9025    -1.4516     5.8107 N.2     
  29 C29           -9.4701    -1.3058     7.0787 C.ar    
  30 C30           -8.0965    -1.0601     7.1636 C.ar    
  31 S31           -7.4373    -1.0420     5.5285 S.3     
  32 C32          -10.2080    -1.3694     8.2823 C.ar    
  33 C33           -9.5492    -1.1886     9.4763 C.ar    
  34 C34           -8.1782    -0.9482     9.4757 C.ar    
  35 N35           -7.5051    -0.8912     8.3436 N.ar    
  36 O36           -7.5275    -0.7692    10.6534 O.3     
  37 C37           -6.1209    -0.5261    10.5870 C.3     
  38 H38           -0.0190     0.6212    -1.4529 H       
  39 H39            0.3460     0.5733     0.2891 H       
  40 H40           -1.6357    -0.8530    -0.3628 H       
  41 H41           -2.0350     0.4099     0.8314 H       
  42 H42           -3.4958     2.5115    -2.0382 H       
  43 H43           -3.2624     2.6300    -0.2741 H       
  44 H44           -1.5098     3.9300    -1.3825 H       
  45 H45           -1.0798     2.5398    -2.4083 H       
  46 H46            1.2454     2.7859    -1.4063 H       
  47 H47            0.6095     4.1133    -0.4054 H       
  48 H48            1.3889     2.7115     0.3663 H       
  49 H49           -6.1992     1.1331    -1.8931 H       
  50 H50           -8.2352     0.6537    -0.5940 H       
  51 H51           -6.3436    -2.7690     1.1078 H       
  52 H52           -4.3092    -2.2923    -0.1949 H       
  53 H53           -9.4164    -0.6258     0.9143 H       
  54 H54           -8.4052    -3.5038     0.8763 H       
  55 H55          -10.0360    -3.0166     1.3974 H       
  56 H56           -8.8564    -2.3771    -1.3469 H       
  57 H57           -9.4685    -4.4812    -1.9964 H       
  58 H58           -9.9390    -4.8627    -0.3158 H       
  59 H59          -11.7531    -4.7234    -2.4054 H       
  60 H60          -12.1914    -4.3739    -0.7037 H       
  61 H61          -11.4212    -2.3897    -2.9141 H       
  62 H62          -12.8259    -2.3254    -1.7990 H       
  63 H63          -11.4393    -1.7857     0.0943 H       
  64 H64          -10.6330    -0.8689    -1.2168 H       
  65 H65          -10.2291    -1.6526     3.2245 H       
  66 H66          -11.2715    -1.5566     8.2649 H       
  67 H67          -10.0926    -1.2327    10.4086 H       
  68 H68           -5.6285    -1.3711    10.1057 H       
  69 H69           -5.9356     0.3795    10.0094 H       
  70 H70           -5.7258    -0.4013    11.5951 H       
@<TRIPOS>BOND
   1    1    2 1
   2    1    7 1
   3    1    6 1
   4    2    3 1
   5    2   38 1
   6    2   39 1
   7    3    4 1
   8    3   40 1
   9    3   41 1
  10    4    5 1
  11    4    8 am
  12    5    6 1
  13    5   42 1
  14    5   43 1
  15    6   44 1
  16    6   45 1
  17    7   46 1
  18    7   47 1
  19    7   48 1
  20    8    9 2
  21    8   10 2
  22    8   11 1
  23   11   12 ar
  24   11   16 ar
  25   12   13 ar
  26   12   49 1
  27   13   14 ar
  28   13   50 1
  29   14   15 ar
  30   14   17 1
  31   15   16 ar
  32   15   51 1
  33   16   52 1
  34   17   18 1
  35   17   24 1
  36   17   53 1
  37   18   19 1
  38   18   54 1
  39   18   55 1
  40   19   20 1
  41   19   23 1
  42   19   56 1
  43   20   21 1
  44   20   57 1
  45   20   58 1
  46   21   22 1
  47   21   59 1
  48   21   60 1
  49   22   23 1
  50   22   61 1
  51   22   62 1
  52   23   63 1
  53   23   64 1
  54   24   25 2
  55   24   26 am
  56   26   27 1
  57   26   65 1
  58   27   28 2
  59   27   31 1
  60   28   29 1
  61   29   30 ar
  62   29   32 ar
  63   30   31 1
  64   30   35 ar
  65   32   33 ar
  66   32   66 1
  67   33   34 ar
  68   33   67 1
  69   34   35 ar
  70   34   36 1
  71   36   37 1
  72   37   68 1
  73   37   69 1
  74   37   70 1

#	End of record

