#	Name: ASD01720194
#	Creating user name:	WinNT
#	Creation time:	15. 06. 2019 19:23

#	Modifying user name:	WinNT
#	Modification time:	15. 06. 2019 19:23

#	Program:	/corina/corina34_cracker 3.40 0067  02.08.2006

@<TRIPOS>MOLECULE
ASD01720194
  57   60    0    0    0
SMALL
NO_CHARGES


@<TRIPOS>ATOM
   1 C1            -1.0592     2.2796     1.4741 C.ar    
   2 N2            -1.2047     0.9774     1.6260 N.ar    
   3 C3            -0.1769     0.1507     1.5955 C.ar    
   4 C4             1.1052     0.6217     1.4012 C.ar    
   5 C5             1.3052     1.9952     1.2357 C.ar    
   6 C6             0.1885     2.8345     1.2750 C.ar    
   7 C7             2.6662     2.5471     1.0245 C.ar    
   8 C8             2.9188     3.4300    -0.0287 C.ar    
   9 C9             4.2057     3.9169    -0.1831 C.ar    
  10 C10            5.1906     3.5177     0.7016 C.ar    
  11 N11            4.9220     2.6822     1.6865 N.ar    
  12 C12            3.7120     2.1978     1.8767 C.ar    
  13 C13            6.5928     4.0449     0.5377 C.3     
  14 C14            7.3483     3.1793    -0.4727 C.3     
  15 N15            7.2838     4.0040     1.8288 N.pl3   
  16 C16            8.3372     4.8666     2.0775 C.ar    
  17 N17            8.9503     4.8158     3.2503 N.ar    
  18 C18            9.9647     5.6304     3.5197 C.ar    
  19 C19           10.3770     6.5430     2.5483 C.ar    
  20 C20            9.7104     6.5636     1.3377 C.ar    
  21 N21            8.7105     5.7191     1.1344 N.ar    
  22 N22           10.6057     5.5746     4.7520 N.am    
  23 C23           11.4821     6.4759     5.2161 C.2     
  24 O24           11.9571     6.1914     6.4338 O.3     
  25 O25           11.8149     7.4613     4.5882 O.2     
  26 C26           11.3630     4.9488     6.9089 C.3     
  27 C27           10.4278     4.5199     5.7618 C.3     
  28 C28           10.8584     3.1655     5.1952 C.3     
  29 C29            1.8186     3.8414    -0.9729 C.3     
  30 F30           12.2087     3.2194     4.8332 F       
  31 C31           10.6577     2.0817     6.2563 C.3     
  32 C32           -0.4064    -1.3277     1.7759 C.3     
  33 F33           -1.7805    -1.5817     1.8421 F       
  34 F34            0.1442    -2.0207     0.6924 F       
  35 F35            0.2042    -1.7534     2.9605 F       
  36 H36           -1.9287     2.9197     1.5014 H       
  37 H37            1.9419    -0.0607     1.3778 H       
  38 H38            0.3003     3.9015     1.1509 H       
  39 H39            4.4379     4.6009    -0.9860 H       
  40 H40            3.5308     1.5162     2.6946 H       
  41 H41            6.5547     5.0732     0.1784 H       
  42 H42            7.3864     2.1509    -0.1134 H       
  43 H43            6.8341     3.2097    -1.4333 H       
  44 H44            8.3625     3.5606    -0.5912 H       
  45 H45            7.0031     3.3724     2.5094 H       
  46 H46           11.1982     7.2182     2.7381 H       
  47 H47           10.0042     7.2580     0.5645 H       
  48 H48           12.1340     4.1973     7.0792 H       
  49 H49           10.7900     5.1230     7.8197 H       
  50 H50            9.3939     4.4814     6.1048 H       
  51 H51           10.2561     2.9307     4.3176 H       
  52 H52            1.3259     4.7348    -0.5893 H       
  53 H53            2.2426     4.0534    -1.9544 H       
  54 H54            1.0918     3.0337    -1.0578 H       
  55 H55            9.6289     2.1107     6.6152 H       
  56 H56           10.8630     1.1040     5.8204 H       
  57 H57           11.3382     2.2583     7.0893 H       
@<TRIPOS>BOND
   1    1    2 ar
   2    1    6 ar
   3    1   36 1
   4    2    3 ar
   5    3   32 1
   6    3    4 ar
   7    4    5 ar
   8    4   37 1
   9    5    6 ar
  10    5    7 1
  11    6   38 1
  12    7    8 ar
  13    7   12 ar
  14    8    9 ar
  15    8   29 1
  16    9   10 ar
  17    9   39 1
  18   10   11 ar
  19   10   13 1
  20   11   12 ar
  21   12   40 1
  22   13   14 1
  23   13   15 1
  24   13   41 1
  25   14   42 1
  26   14   43 1
  27   14   44 1
  28   15   16 1
  29   15   45 1
  30   16   17 ar
  31   16   21 ar
  32   17   18 ar
  33   18   19 ar
  34   18   22 1
  35   19   20 ar
  36   19   46 1
  37   20   21 ar
  38   20   47 1
  39   22   23 am
  40   22   27 1
  41   23   24 1
  42   23   25 2
  43   24   26 1
  44   26   27 1
  45   26   48 1
  46   26   49 1
  47   27   28 1
  48   27   50 1
  49   28   30 1
  50   28   31 1
  51   28   51 1
  52   29   52 1
  53   29   53 1
  54   29   54 1
  55   31   55 1
  56   31   56 1
  57   31   57 1
  58   32   33 1
  59   32   34 1
  60   32   35 1

#	End of record

