#	Name: ASD07300483
#	Creating user name:	WinNT
#	Creation time:	15. 06. 2019 21:09

#	Modifying user name:	WinNT
#	Modification time:	15. 06. 2019 21:09

#	Program:	/corina/corina34_cracker 3.40 0067  02.08.2006

@<TRIPOS>MOLECULE
ASD07300483
  54   56    0    0    0
SMALL
NO_CHARGES


@<TRIPOS>ATOM
   1 C1            -0.0225     1.8097     0.0120 C.3     
   2 S2             0.0021    -0.0041     0.0020 S.o2    
   3 O3            -1.3056    -0.5216     0.2056 O.2     
   4 O4             0.8248    -0.4858    -1.0517 O.2     
   5 O5             0.7562    -0.3806     1.2693 O.3     
   6 F6             1.2900     2.2940     0.0021 F       
   7 F7            -0.6992     2.2732    -1.1214 F       
   8 F8            -0.6773     2.2609     1.1630 F       
   9 C9             0.0336    -0.2234     2.4102 C.ar    
  10 C10           -0.7346    -1.2720     2.8945 C.ar    
  11 C11           -1.4683    -1.1130     4.0535 C.ar    
  12 C12           -1.4370     0.0966     4.7340 C.ar    
  13 C13           -0.6681     1.1457     4.2489 C.ar    
  14 C14            0.0694     0.9838     3.0927 C.ar    
  15 C15           -2.2385     1.4128     6.6846 C.ar    
  16 C16           -3.0935     1.1355     7.7557 C.ar    
  17 C17           -3.3435     2.1210     8.6988 C.ar    
  18 C18           -2.7282     3.3541     8.5383 C.ar    
  19 C19           -1.8944     3.5590     7.4551 C.ar    
  20 N20           -1.6736     2.6037     6.5728 N.ar    
  21 C21           -2.9646    -0.6764     6.4818 C.2     
  22 N22           -2.1827     0.2588     5.9113 N.am    
  23 N23           -3.5244    -0.1788     7.6011 N.am    
  24 C24           -4.4370    -0.8943     8.4962 C.3     
  25 O25           -5.7239    -0.9951     7.8832 O.3     
  26 C26           -5.8253    -2.0391     6.9127 C.3     
  27 C27           -7.2379    -2.0538     6.3251 C.3     
  28 Si28          -7.3700    -3.4149     5.0599 Si      
  29 C29           -7.0181    -5.0542     5.8721 C.3     
  30 C30           -9.0900    -3.4329     4.3444 C.3     
  31 C31           -6.1339    -3.1187     3.6978 C.3     
  32 O32           -3.1359    -1.8025     6.0539 O.2     
  33 H33           -0.7591    -2.2129     2.3648 H       
  34 H34           -2.0666    -1.9294     4.4302 H       
  35 H35           -0.6437     2.0870     4.7778 H       
  36 H36            0.6711     1.7985     2.7177 H       
  37 H37           -4.0000     1.9338     9.5357 H       
  38 H38           -2.8993     4.1461     9.2523 H       
  39 H39           -1.4149     4.5185     7.3291 H       
  40 H40           -4.0473    -1.8938     8.6893 H       
  41 H41           -4.5242    -0.3504     9.4368 H       
  42 H42           -5.1021    -1.8658     6.1158 H       
  43 H43           -5.6194    -2.9982     7.3879 H       
  44 H44           -7.9611    -2.2271     7.1221 H       
  45 H45           -7.4438    -1.0947     5.8499 H       
  46 H46           -7.7413    -5.2275     6.6690 H       
  47 H47           -7.0954    -5.8505     5.1319 H       
  48 H48           -6.0117    -5.0436     6.2907 H       
  49 H49           -9.2959    -2.4738     3.8692 H       
  50 H50           -9.1673    -4.2292     3.6042 H       
  51 H51           -9.8132    -3.6062     5.1414 H       
  52 H52           -5.1276    -3.1082     4.1164 H       
  53 H53           -6.2112    -3.9150     2.9575 H       
  54 H54           -6.3398    -2.1596     3.2226 H       
@<TRIPOS>BOND
   1    1    2 1
   2    1    6 1
   3    1    7 1
   4    1    8 1
   5    2    3 2
   6    2    4 2
   7    2    5 1
   8    5    9 1
   9    9   10 ar
  10    9   14 ar
  11   10   11 ar
  12   10   33 1
  13   11   12 ar
  14   11   34 1
  15   12   13 ar
  16   12   22 1
  17   13   14 ar
  18   13   35 1
  19   14   36 1
  20   15   16 ar
  21   15   20 ar
  22   15   22 1
  23   16   17 ar
  24   16   23 1
  25   17   18 ar
  26   17   37 1
  27   18   19 ar
  28   18   38 1
  29   19   20 ar
  30   19   39 1
  31   21   22 am
  32   21   23 am
  33   21   32 2
  34   23   24 1
  35   24   25 1
  36   24   40 1
  37   24   41 1
  38   25   26 1
  39   26   27 1
  40   26   42 1
  41   26   43 1
  42   27   28 1
  43   27   44 1
  44   27   45 1
  45   28   29 1
  46   28   30 1
  47   28   31 1
  48   29   46 1
  49   29   47 1
  50   29   48 1
  51   30   49 1
  52   30   50 1
  53   30   51 1
  54   31   52 1
  55   31   53 1
  56   31   54 1

#	End of record

