#	Name: ASD01871011
#	Creating user name:	WinNT
#	Creation time:	15. 06. 2019 19:39

#	Modifying user name:	WinNT
#	Modification time:	15. 06. 2019 19:39

#	Program:	/corina/corina34_cracker 3.40 0067  02.08.2006

@<TRIPOS>MOLECULE
ASD01871011
  41   43    0    0    0
SMALL
NO_CHARGES


@<TRIPOS>ATOM
   1 C1            -0.0167     1.3790     0.0096 C.ar    
   2 C2             0.0021    -0.0041     0.0020 C.ar    
   3 C3             1.2063    -0.6845    -0.0127 C.ar    
   4 C4             2.3965     0.0142    -0.0204 C.ar    
   5 C5             2.3836     1.4075    -0.0132 C.ar    
   6 C6             1.1676     2.0878     0.0021 C.ar    
   7 C7             3.6600     2.1642    -0.0209 C.2     
   8 C8             3.7886     3.3706    -0.6926 C.2     
   9 C9             5.0176     3.9372    -0.6039 C.2     
  10 S10            5.9563     2.8638     0.3578 S.3     
  11 N11            4.7210     1.7301     0.6103 N.2     
  12 C12            2.6546     4.0008    -1.4594 C.3     
  13 N13            5.4339     5.1396    -1.1745 N.am    
  14 C14            6.6982     5.5697    -0.9926 C.2     
  15 C15            7.1481     6.8691    -1.6092 C.3     
  16 O16            7.4738     4.9110    -0.3326 O.2     
  17 C17            8.1702     6.7954    -2.7453 C.3     
  18 C18            8.5950     7.3029    -1.3659 C.3     
  19 C19            8.8678     8.8011    -1.2176 C.3     
  20 C20           -1.7468    -1.0248    -1.4293 C.3     
  21 C21           -1.2943    -0.7725     0.0103 C.3     
  22 F22           -1.1067    -1.9964     0.6615 F       
  23 F23           -2.2715    -0.0312     0.6832 F       
  24 H24           -0.9598     1.9052     0.0170 H       
  25 H25            1.2152    -1.7644    -0.0179 H       
  26 H26            3.3362    -0.5180    -0.0315 H       
  27 H27            1.1518     3.1677     0.0074 H       
  28 H28            2.0879     4.6555    -0.7973 H       
  29 H29            3.0561     4.5825    -2.2892 H       
  30 H30            1.9995     3.2202    -1.8463 H       
  31 H31            4.8136     5.6663    -1.7024 H       
  32 H32            6.3904     7.6507    -1.6639 H       
  33 H33            8.5173     5.8070    -3.0467 H       
  34 H34            8.0852     7.5288    -3.5472 H       
  35 H35            9.2214     6.6485    -0.7598 H       
  36 H36            8.5615     9.3180    -2.1270 H       
  37 H37            8.3036     9.1911    -0.3704 H       
  38 H38            9.9328     8.9616    -1.0497 H       
  39 H39           -0.9854    -1.6023    -1.9535 H       
  40 H40           -2.6844    -1.5806    -1.4233 H       
  41 H41           -1.8929    -0.0712    -1.9366 H       
@<TRIPOS>BOND
   1    1    2 ar
   2    1    6 ar
   3    1   24 1
   4    2    3 ar
   5    2   21 1
   6    3    4 ar
   7    3   25 1
   8    4    5 ar
   9    4   26 1
  10    5    6 ar
  11    5    7 1
  12    6   27 1
  13    7    8 1
  14    7   11 2
  15    8    9 2
  16    8   12 1
  17    9   10 1
  18    9   13 1
  19   10   11 1
  20   12   28 1
  21   12   29 1
  22   12   30 1
  23   13   14 am
  24   13   31 1
  25   14   16 2
  26   14   15 1
  27   15   17 1
  28   15   18 1
  29   15   32 1
  30   17   18 1
  31   17   33 1
  32   17   34 1
  33   18   19 1
  34   18   35 1
  35   19   36 1
  36   19   37 1
  37   19   38 1
  38   20   21 1
  39   20   39 1
  40   20   40 1
  41   20   41 1
  42   21   22 1
  43   21   23 1

#	End of record

