#	Name: ASD01810127
#	Creating user name:	WinNT
#	Creation time:	15. 06. 2019 19:23

#	Modifying user name:	WinNT
#	Modification time:	15. 06. 2019 19:23

#	Program:	/corina/corina34_cracker 3.40 0067  02.08.2006

@<TRIPOS>MOLECULE
ASD01810127
  40   43    0    0    0
SMALL
NO_CHARGES


@<TRIPOS>ATOM
   1 C1            -0.0168     1.3834    -0.0471 C.ar    
   2 C2             0.0020    -0.0038    -0.0541 C.ar    
   3 C3             1.1976    -0.6920    -0.0506 C.ar    
   4 C4             2.4035     0.0084    -0.0397 C.ar    
   5 C5             2.3796     1.4130    -0.0326 C.ar    
   6 C6             1.1627     2.0947    -0.0363 C.ar    
   7 N7             3.6056    -0.6668    -0.0350 N.pl3   
   8 C8             4.7891    -0.0410    -0.0233 C.2     
   9 C9             4.8932     1.3356    -0.0150 C.2     
  10 C10            3.6619     2.1417    -0.0212 C.2     
  11 O11            3.7002     3.3596    -0.0146 O.2     
  12 C12            6.2115     1.9851    -0.0012 C.2     
  13 O13            6.3001     3.3303     0.0068 O.3     
  14 O14            7.2221     1.3094     0.0030 O.2     
  15 C15            3.5871    -2.1316    -0.0427 C.3     
  16 C16            3.4445    -2.6248    -1.4595 C.ar    
  17 N17            2.2436    -2.7293    -1.9939 N.ar    
  18 C18            2.0677    -3.1550    -3.2290 C.ar    
  19 C19            3.1537    -3.5114    -4.0165 C.ar    
  20 C20            4.4364    -3.4131    -3.4833 C.ar    
  21 C21            4.5752    -2.9560    -2.1832 C.ar    
  22 N22            2.9621    -3.9642    -5.3295 N.pl3   
  23 C23            1.7832    -4.0142    -5.9900 C.2     
  24 C24            2.0245    -4.5089    -7.2262 C.2     
  25 C25            3.3955    -4.7701    -7.3256 C.2     
  26 N26            3.9589    -4.4392    -6.1916 N.2     
  27 F27            1.2003    -2.0429    -0.0571 F       
  28 H28           -0.9608     1.9082    -0.0545 H       
  29 H29           -0.9293    -0.5507    -0.0622 H       
  30 H30            1.1454     3.1745    -0.0312 H       
  31 H31            5.6925    -0.6328    -0.0198 H       
  32 H32            7.1887     3.7117     0.0158 H       
  33 H33            4.5175    -2.5090     0.3815 H       
  34 H34            2.7459    -2.4875     0.5522 H       
  35 H35            1.0684    -3.2276    -3.6321 H       
  36 H36            5.3018    -3.6828    -4.0704 H       
  37 H37            5.5548    -2.8667    -1.7372 H       
  38 H38            0.8217    -3.7138    -5.6006 H       
  39 H39            1.2887    -4.6733    -7.9995 H       
  40 H40            3.9022    -5.1720    -8.1906 H       
@<TRIPOS>BOND
   1    1    2 ar
   2    1    6 ar
   3    1   28 1
   4    2    3 ar
   5    2   29 1
   6    3    4 ar
   7    3   27 1
   8    4    5 ar
   9    4    7 1
  10    5    6 ar
  11    5   10 1
  12    6   30 1
  13    7    8 1
  14    7   15 1
  15    8    9 2
  16    8   31 1
  17    9   10 1
  18    9   12 1
  19   10   11 2
  20   12   13 1
  21   12   14 2
  22   13   32 1
  23   15   16 1
  24   15   33 1
  25   15   34 1
  26   16   17 ar
  27   16   21 ar
  28   17   18 ar
  29   18   19 ar
  30   18   35 1
  31   19   20 ar
  32   19   22 1
  33   20   21 ar
  34   20   36 1
  35   21   37 1
  36   22   23 1
  37   22   26 1
  38   23   24 2
  39   23   38 1
  40   24   25 1
  41   24   39 1
  42   25   26 2
  43   25   40 1

#	End of record

