#	Name: ASD01880188
#	Creating user name:	WinNT
#	Creation time:	15. 06. 2019 19:40

#	Modifying user name:	WinNT
#	Modification time:	15. 06. 2019 19:40

#	Program:	/corina/corina34_cracker 3.40 0067  02.08.2006

@<TRIPOS>MOLECULE
ASD01880188
  44   48    0    0    0
SMALL
NO_CHARGES


@<TRIPOS>ATOM
   1 C1            -0.0184     1.5028     0.0103 C.2     
   2 C2             0.0021    -0.0041     0.0020 C.3     
   3 N3             0.0219    -0.5011     1.3842 N.3     
   4 C4            -0.1986    -1.9697     1.4251 C.3     
   5 C5            -0.6837    -2.2503     2.8636 C.3     
   6 C6            -1.2825    -0.9153     3.3523 C.3     
   7 C7            -1.1087     0.0597     2.1680 C.3     
   8 C8            -2.1815    -2.1374     3.1545 C.3     
   9 H9            -1.0896    -0.5322     4.3543 H       
  10 H10           -0.0452    -2.8610     3.5018 H       
  11 C11           -2.7105    -2.8341     4.4098 C.3     
  12 O12           -4.1342    -2.7195     4.4540 O.3     
  13 C13           -4.7664    -3.2892     5.5136 C.ar    
  14 C14           -6.1477    -3.2160     5.6200 C.ar    
  15 C15           -6.7880    -3.7959     6.6980 C.ar    
  16 C16           -6.0534    -4.4489     7.6705 C.ar    
  17 C17           -4.6766    -4.5229     7.5669 C.ar    
  18 C18           -4.0321    -3.9500     6.4877 C.ar    
  19 N19            1.0293     2.2369     0.0042 N.2     
  20 C20            0.8613     3.5729     0.0130 C.ar    
  21 C21           -0.4924     3.9264     0.0279 C.ar    
  22 S22           -1.4420     2.4436     0.0216 S.3     
  23 C23            1.8252     4.6015     0.0094 C.ar    
  24 C24            1.4400     5.9077     0.0201 C.ar    
  25 C25            0.0955     6.2515     0.0347 C.ar    
  26 C26           -0.8678     5.2682     0.0387 C.ar    
  27 H27           -0.8878    -0.3767    -0.5053 H       
  28 H28            0.8920    -0.3525    -0.5222 H       
  29 H29           -0.9619    -2.2597     0.7031 H       
  30 H30            0.7333    -2.4997     1.2280 H       
  31 H31           -0.8621     1.0577     2.5302 H       
  32 H32           -2.0144     0.0872     1.5622 H       
  33 H33           -2.8598    -2.1293     2.3013 H       
  34 H34           -2.4313    -3.8875     4.3856 H       
  35 H35           -2.2806    -2.3645     5.2945 H       
  36 H36           -6.7220    -2.7057     4.8608 H       
  37 H37           -7.8632    -3.7388     6.7815 H       
  38 H38           -6.5558    -4.9016     8.5125 H       
  39 H39           -4.1049    -5.0329     8.3282 H       
  40 H40           -2.9567    -4.0080     6.4072 H       
  41 H41            2.8760     4.3521    -0.0017 H       
  42 H42            2.1897     6.6851     0.0174 H       
  43 H43           -0.1953     7.2916     0.0431 H       
  44 H44           -1.9139     5.5366     0.0501 H       
@<TRIPOS>BOND
   1    1    2 1
   2    1   19 2
   3    1   22 1
   4    2    3 1
   5    2   27 1
   6    2   28 1
   7    3    4 1
   8    3    7 1
   9    4    5 1
  10    4   29 1
  11    4   30 1
  12    5    6 1
  13    5   10 1
  14    5    8 1
  15    6    7 1
  16    6    9 1
  17    6    8 1
  18    7   31 1
  19    7   32 1
  20    8   11 1
  21    8   33 1
  22   11   12 1
  23   11   34 1
  24   11   35 1
  25   12   13 1
  26   13   14 ar
  27   13   18 ar
  28   14   15 ar
  29   14   36 1
  30   15   16 ar
  31   15   37 1
  32   16   17 ar
  33   16   38 1
  34   17   18 ar
  35   17   39 1
  36   18   40 1
  37   19   20 1
  38   20   21 ar
  39   20   23 ar
  40   21   22 1
  41   21   26 ar
  42   23   24 ar
  43   23   41 1
  44   24   25 ar
  45   24   42 1
  46   25   26 ar
  47   25   43 1
  48   26   44 1

#	End of record

