#	Name: ASD04530009
#	Creating user name:	WinNT
#	Creation time:	15. 06. 2019 20:49

#	Modifying user name:	WinNT
#	Modification time:	15. 06. 2019 20:49

#	Program:	/corina/corina34_cracker 3.40 0067  02.08.2006

@<TRIPOS>MOLECULE
ASD04530009
  23   25    0    0    0
SMALL
NO_CHARGES


@<TRIPOS>ATOM
   1 C1            -0.0167     1.3819     0.0096 C.ar    
   2 C2             0.0021    -0.0041     0.0020 C.ar    
   3 C3             1.2183    -0.6853    -0.0132 C.ar    
   4 C4             2.4064     0.0227    -0.0210 C.ar    
   5 C5             2.3854     1.4166    -0.0136 C.ar    
   6 C6             1.1669     2.0923     0.0022 C.ar    
   7 C7             3.6578     2.1789    -0.0219 C.2     
   8 C8             3.6912     3.5222    -0.0153 C.2     
   9 S9             5.3771     4.0340    -0.0282 S.3     
  10 C10            5.8914     2.3500    -0.0417 C.2     
  11 N11            4.8477     1.5798    -0.0308 N.2     
  12 N12            7.2068     1.9151    -0.0569 N.pl3   
  13 O13           -1.0102    -0.9207     0.0075 O.3     
  14 O14            0.9665    -2.0271    -0.0173 O.3     
  15 C15           -0.4103    -2.1587    -0.4174 C.3     
  16 H16           -0.9601     1.9076     0.0169 H       
  17 H17            3.3493    -0.5037    -0.0325 H       
  18 H18            1.1485     3.1722     0.0076 H       
  19 H19            2.8318     4.1762    -0.0043 H       
  20 H20            7.9309     2.5605    -0.0605 H       
  21 H21            7.4035     0.9653    -0.0639 H       
  22 H22           -0.8771    -3.0038     0.0886 H       
  23 H23           -0.4858    -2.2694    -1.4991 H       
@<TRIPOS>BOND
   1    1    2 ar
   2    1    6 ar
   3    1   16 1
   4    2    3 ar
   5    2   13 1
   6    3    4 ar
   7    3   14 1
   8    4    5 ar
   9    4   17 1
  10    5    6 ar
  11    5    7 1
  12    6   18 1
  13    7    8 2
  14    7   11 1
  15    8    9 1
  16    8   19 1
  17    9   10 1
  18   10   11 2
  19   10   12 1
  20   12   20 1
  21   12   21 1
  22   13   15 1
  23   14   15 1
  24   15   22 1
  25   15   23 1

#	End of record

