#	Name: ASD01918254
#	Creating user name:	WinNT
#	Creation time:	15. 06. 2019 20:11

#	Modifying user name:	WinNT
#	Modification time:	15. 06. 2019 20:11

#	Program:	/corina/corina34_cracker 3.40 0067  02.08.2006

@<TRIPOS>MOLECULE
ASD01918254
  50   55    0    0    0
SMALL
NO_CHARGES


@<TRIPOS>ATOM
   1 O1             0.0021    -0.0041     0.0020 O.2     
   2 C2            -0.0144     1.2120     0.0087 C.2     
   3 N3             1.1435     1.9017     0.0014 N.am    
   4 C4             2.4220     1.1865    -0.0147 C.3     
   5 C5             2.5269     0.3014     1.2289 C.3     
   6 C6             3.8621    -0.4455     1.2121 C.3     
   7 C7             3.9431    -1.3172    -0.0427 C.3     
   8 C8             3.8382    -0.4320    -1.2862 C.3     
   9 C9             2.5030     0.3148    -1.2695 C.3     
  10 C10            4.9875     0.5779    -1.2918 C.3     
  11 C11            4.9065     1.4496    -0.0370 C.3     
  12 C12            5.0113     0.5645     1.2066 C.3     
  13 C13            3.5712     2.1965    -0.0202 C.3     
  14 N14            6.0069     2.4167    -0.0423 N.am    
  15 C15            6.2421     3.4380    -1.0690 C.3     
  16 C16            7.4826     4.1870    -0.6456 C.ar    
  17 N17            8.1488     5.1892    -1.1734 N.ar    
  18 C18            9.2318     5.6817    -0.6005 C.ar    
  19 C19            9.7126     5.1589     0.5863 C.ar    
  20 C20            9.0458     4.1019     1.1823 C.ar    
  21 C21            7.9018     3.6027     0.5517 C.ar    
  22 C22            6.9646     2.5184     0.8958 C.2     
  23 O23            7.0470     1.8158     1.8842 O.2     
  24 C24           -1.2995     1.9309     0.0187 C.2     
  25 N25           -1.4433     3.2285     0.0208 N.2     
  26 C26           -2.6747     3.6667     0.0302 C.2     
  27 C27           -3.6299     2.7236     0.0365 C.2     
  28 S28           -2.8924     1.1801     0.0222 S.3     
  29 H29            1.1303     2.8716     0.0067 H       
  30 H30            2.4691     0.9224     2.1228 H       
  31 H31            1.7081    -0.4181     1.2328 H       
  32 H32            3.9368    -1.0760     2.0980 H       
  33 H33            4.8943    -1.8493    -0.0546 H       
  34 H34            3.1243    -2.0367    -0.0387 H       
  35 H35            3.8960    -1.0531    -2.1801 H       
  36 H36            1.6842    -0.4047    -1.2655 H       
  37 H37            2.4283     0.9454    -2.1554 H       
  38 H38            5.9387     0.0458    -1.3037 H       
  39 H39            4.9128     1.2085    -2.1777 H       
  40 H40            4.9536     1.1855     2.1005 H       
  41 H41            5.9626     0.0324     1.1946 H       
  42 H42            3.4965     2.8271    -0.9062 H       
  43 H43            3.5135     2.8175     0.8737 H       
  44 H44            6.4028     2.9650    -2.0377 H       
  45 H45            5.3928     4.1193    -1.1207 H       
  46 H46            9.7510     6.5061    -1.0665 H       
  47 H47           10.6001     5.5709     1.0436 H       
  48 H48            9.3997     3.6745     2.1088 H       
  49 H49           -2.9088     4.7210     0.0331 H       
  50 H50           -4.6937     2.9096     0.0447 H       
@<TRIPOS>BOND
   1    1    2 2
   2    2    3 am
   3    2   24 1
   4    3    4 1
   5    3   29 1
   6    4    9 1
   7    4   13 1
   8    4    5 1
   9    5    6 1
  10    5   30 1
  11    5   31 1
  12    6   12 1
  13    6    7 1
  14    6   32 1
  15    7    8 1
  16    7   33 1
  17    7   34 1
  18    8    9 1
  19    8   10 1
  20    8   35 1
  21    9   36 1
  22    9   37 1
  23   10   11 1
  24   10   38 1
  25   10   39 1
  26   11   12 1
  27   11   13 1
  28   11   14 1
  29   12   40 1
  30   12   41 1
  31   13   42 1
  32   13   43 1
  33   14   22 am
  34   14   15 1
  35   15   16 1
  36   15   44 1
  37   15   45 1
  38   16   21 ar
  39   16   17 ar
  40   17   18 ar
  41   18   19 ar
  42   18   46 1
  43   19   20 ar
  44   19   47 1
  45   20   21 ar
  46   20   48 1
  47   21   22 1
  48   22   23 2
  49   24   28 1
  50   24   25 2
  51   25   26 1
  52   26   27 2
  53   26   49 1
  54   27   28 1
  55   27   50 1

#	End of record

