#	Name: ASD01916773
#	Creating user name:	WinNT
#	Creation time:	15. 06. 2019 20:08

#	Modifying user name:	WinNT
#	Modification time:	15. 06. 2019 20:08

#	Program:	/corina/corina34_cracker 3.40 0067  02.08.2006

@<TRIPOS>MOLECULE
ASD01916773
  65   69    0    0    0
SMALL
NO_CHARGES


@<TRIPOS>ATOM
   1 C1            -0.0419     1.4068     0.6062 C.ar    
   2 C2             0.0075     0.0327     0.4376 C.ar    
   3 C3            -1.1514    -0.6787     0.1709 C.ar    
   4 C4            -2.3598    -0.0206     0.0723 C.ar    
   5 C5            -2.4141     1.3616     0.2417 C.ar    
   6 C6            -1.2474     2.0722     0.5153 C.ar    
   7 C7            -3.7118     2.0738     0.1364 C.2     
   8 N8            -3.8887     3.3920     0.2785 N.2     
   9 N9            -4.8739     1.5116    -0.1175 N.2     
  10 N10           -5.8310     2.5390    -0.1284 N.pl3   
  11 C11           -5.1619     3.6882     0.1236 C.2     
  12 C12           -5.7571     5.0399     0.2107 C.ar    
  13 C13           -7.2690     2.3959    -0.3690 C.3     
  14 C14           -7.9702     2.1084     0.9336 C.2     
  15 O15           -7.3315     2.0307     1.9617 O.2     
  16 N16           -9.3069     1.9376     0.9560 N.am    
  17 C17          -10.0109     1.6562     2.2164 C.3     
  18 C18          -11.1748     2.6433     2.3547 C.3     
  19 N19          -12.0112     2.5813     1.1487 N.3     
  20 C20          -11.2606     3.0001    -0.0426 C.3     
  21 C21          -10.1010     2.0336    -0.2782 C.3     
  22 C22          -13.1617     3.3388     1.3026 C.ar    
  23 C23          -14.0980     3.4191     0.2746 C.ar    
  24 N24          -13.3910     3.9961     2.4373 N.ar    
  25 C25          -15.2345     4.1908     0.4783 C.ar    
  26 N26          -15.3879     4.8216     1.6395 N.ar    
  27 C27          -14.4825     4.7178     2.5909 C.ar    
  28 C28           -7.1243     5.1888     0.4449 C.ar    
  29 F29            1.1890    -0.6156     0.5330 F       
  30 C30           -7.6744     6.4512     0.5253 C.ar    
  31 C31           -6.8715     7.5703     0.3734 C.ar    
  32 C32           -5.5126     7.4277     0.1401 C.ar    
  33 C33           -4.9519     6.1702     0.0646 C.ar    
  34 F34           -7.4151     8.8046     0.4525 F       
  35 O35          -16.1741     4.3001    -0.4925 O.3     
  36 C36          -17.3135     5.1129    -0.2041 C.3     
  37 C37            1.2218     2.1753     0.8956 C.3     
  38 C38           -4.6455     8.6491    -0.0252 C.3     
  39 H39           -1.1084    -1.7498     0.0398 H       
  40 H40           -3.2624    -0.5757    -0.1363 H       
  41 H41           -1.2851     3.1434     0.6476 H       
  42 H42           -7.6597     3.3197    -0.7958 H       
  43 H43           -7.4411     1.5736    -1.0635 H       
  44 H44          -10.3955     0.6364     2.2011 H       
  45 H45           -9.3248     1.7792     3.0544 H       
  46 H46          -11.7735     2.3798     3.2266 H       
  47 H47          -10.7828     3.6534     2.4739 H       
  48 H48          -11.9216     2.9954    -0.9093 H       
  49 H49          -10.8674     4.0052     0.1100 H       
  50 H50           -9.4752     2.4037    -1.0903 H       
  51 H51          -10.4915     1.0484    -0.5329 H       
  52 H52          -13.9440     2.8949    -0.6570 H       
  53 H53          -14.6375     5.2428     3.5219 H       
  54 H54           -7.7510     4.3171     0.5628 H       
  55 H55           -8.7327     6.5675     0.7065 H       
  56 H56           -3.8930     6.0601    -0.1172 H       
  57 H57          -17.9851     5.1147    -1.0626 H       
  58 H58          -17.8354     4.7118     0.6647 H       
  59 H59          -16.9890     6.1321     0.0055 H       
  60 H60            1.6787     2.4897    -0.0427 H       
  61 H61            0.9836     3.0533     1.4960 H       
  62 H62            1.9169     1.5386     1.4428 H       
  63 H63           -4.2613     8.9562     0.9475 H       
  64 H64           -3.8122     8.4161    -0.6880 H       
  65 H65           -5.2360     9.4585    -0.4546 H       
@<TRIPOS>BOND
   1    1    2 ar
   2    1   37 1
   3    1    6 ar
   4    2    3 ar
   5    2   29 1
   6    3    4 ar
   7    3   39 1
   8    4    5 ar
   9    4   40 1
  10    5    6 ar
  11    5    7 1
  12    6   41 1
  13    7    8 1
  14    7    9 2
  15    8   11 2
  16    9   10 1
  17   10   11 1
  18   10   13 1
  19   11   12 1
  20   12   28 ar
  21   12   33 ar
  22   13   14 1
  23   13   42 1
  24   13   43 1
  25   14   15 2
  26   14   16 am
  27   16   17 1
  28   16   21 1
  29   17   18 1
  30   17   44 1
  31   17   45 1
  32   18   19 1
  33   18   46 1
  34   18   47 1
  35   19   20 1
  36   19   22 1
  37   20   21 1
  38   20   48 1
  39   20   49 1
  40   21   50 1
  41   21   51 1
  42   22   23 ar
  43   22   24 ar
  44   23   25 ar
  45   23   52 1
  46   24   27 ar
  47   25   26 ar
  48   25   35 1
  49   26   27 ar
  50   27   53 1
  51   28   30 ar
  52   28   54 1
  53   30   31 ar
  54   30   55 1
  55   31   32 ar
  56   31   34 1
  57   32   33 ar
  58   32   38 1
  59   33   56 1
  60   35   36 1
  61   36   57 1
  62   36   58 1
  63   36   59 1
  64   37   60 1
  65   37   61 1
  66   37   62 1
  67   38   63 1
  68   38   64 1
  69   38   65 1

#	End of record

