#	Name: ASD01209073
#	Creating user name:	WinNT
#	Creation time:	15. 06. 2019 19:10

#	Modifying user name:	WinNT
#	Modification time:	15. 06. 2019 19:10

#	Program:	/corina/corina34_cracker 3.40 0067  02.08.2006

@<TRIPOS>MOLECULE
ASD01209073
  55   56    0    0    0
SMALL
NO_CHARGES


@<TRIPOS>ATOM
   1 C1             0.3854     2.3491     0.0316 C.3     
   2 C2             5.6227    -1.4110     5.6314 C.ar    
   3 C3             4.4887    -0.8611     5.0510 C.ar    
   4 C4             3.9907     0.3531     5.5029 C.ar    
   5 C5             4.6238     1.0222     6.5360 C.ar    
   6 C6             5.7668     0.4728     7.1246 C.ar    
   7 C7             6.2606    -0.7530     6.6693 C.ar    
   8 O8             6.1050    -2.6002     5.1840 O.3     
   9 C9             7.3376    -3.0536     5.7472 C.3     
  10 C10            7.0580    -3.7960     7.0555 C.3     
  11 C11            6.4446     1.1800     8.2232 C.2     
  12 O12            6.0117     2.2411     8.6195 O.2     
  13 C13            7.6764     0.5854     8.8557 C.3     
  14 C14            8.5206     1.7008     9.4754 C.3     
  15 C15            7.2625    -0.4061     9.9450 C.3     
  16 O16            2.8798     0.8862     4.9295 O.3     
  17 C17            2.3181     0.1788     3.8222 C.3     
  18 C18            0.8407     0.5504     3.6763 C.3     
  19 C19            0.2333    -0.2358     2.5102 C.3     
  20 N20            1.0385     0.0076     1.3055 N.am    
  21 C21            2.4871    -0.2311     1.3640 C.3     
  22 C22            3.0692     0.5550     2.5430 C.3     
  23 S23            0.3269     0.5402    -0.0916 S.o2    
  24 O24           -1.0136     0.0774    -0.0007 O.2     
  25 O25            1.1917     0.0824    -1.1220 O.2     
  26 C26            8.0311    -3.9979     4.7632 C.3     
  27 H27            1.4228     2.6746     0.1096 H       
  28 H28           -0.0674     2.7887    -0.8571 H       
  29 H29           -0.1638     2.6710     0.9164 H       
  30 H30            3.9919    -1.3797     4.2443 H       
  31 H31            4.2357     1.9671     6.8867 H       
  32 H32            7.1432    -1.1819     7.1204 H       
  33 H33            7.9828    -2.1979     5.9458 H       
  34 H34            6.5639    -3.1233     7.7565 H       
  35 H35            6.4127    -4.6518     6.8569 H       
  36 H36            7.9982    -4.1418     7.4851 H       
  37 H37            8.2608     0.0669     8.0955 H       
  38 H38            7.9362     2.2192    10.2355 H       
  39 H39            9.4116     1.2707     9.9328 H       
  40 H40            8.8155     2.4071     8.6993 H       
  41 H41            6.6780     0.1123    10.7051 H       
  42 H42            6.6610    -1.2007     9.5035 H       
  43 H43            8.1535    -0.8362    10.4024 H       
  44 H44            2.4076    -0.8939     3.9935 H       
  45 H45            0.3109     0.3037     4.5964 H       
  46 H46            0.7519     1.6189     3.4802 H       
  47 H47            0.2391    -1.3002     2.7447 H       
  48 H48           -0.7903     0.0972     2.3388 H       
  49 H49            2.6767    -1.2952     1.5050 H       
  50 H50            2.9505     0.1049     0.4364 H       
  51 H51            2.9594     1.6235     2.3575 H       
  52 H52            4.1256     0.3116     2.6564 H       
  53 H53            8.2303    -3.4690     3.8311 H       
  54 H54            8.9713    -4.3437     5.1927 H       
  55 H55            7.3858    -4.8536     4.5646 H       
@<TRIPOS>BOND
   1    1   23 1
   2    1   27 1
   3    1   28 1
   4    1   29 1
   5    2    3 ar
   6    2    8 1
   7    2    7 ar
   8    3    4 ar
   9    3   30 1
  10    4    5 ar
  11    4   16 1
  12    5    6 ar
  13    5   31 1
  14    6    7 ar
  15    6   11 1
  16    7   32 1
  17    8    9 1
  18    9   10 1
  19    9   26 1
  20    9   33 1
  21   10   34 1
  22   10   35 1
  23   10   36 1
  24   11   12 2
  25   11   13 1
  26   13   14 1
  27   13   15 1
  28   13   37 1
  29   14   38 1
  30   14   39 1
  31   14   40 1
  32   15   41 1
  33   15   42 1
  34   15   43 1
  35   16   17 1
  36   17   18 1
  37   17   22 1
  38   17   44 1
  39   18   19 1
  40   18   45 1
  41   18   46 1
  42   19   20 1
  43   19   47 1
  44   19   48 1
  45   20   21 1
  46   20   23 am
  47   21   22 1
  48   21   49 1
  49   21   50 1
  50   22   51 1
  51   22   52 1
  52   23   24 2
  53   23   25 2
  54   26   53 1
  55   26   54 1
  56   26   55 1

#	End of record

