#	Name: ASD06020025
#	Creating user name:	WinNT
#	Creation time:	15. 06. 2019 21:04

#	Modifying user name:	WinNT
#	Modification time:	15. 06. 2019 21:04

#	Program:	/corina/corina34_cracker 3.40 0067  02.08.2006

@<TRIPOS>MOLECULE
ASD06020025
  43   46    0    0    0
SMALL
NO_CHARGES


@<TRIPOS>ATOM
   1 C1            -0.2115     1.1113     0.4536 C.ar    
   2 C2             0.9003     1.9408     0.6480 C.ar    
   3 C3             2.1299     1.3412     0.8510 C.ar    
   4 C4             2.1878    -0.0535     0.8497 C.ar    
   5 N5             1.0808    -0.7623     0.6571 N.ar    
   6 N6            -0.0614    -0.2078     0.4685 N.ar    
   7 C7            -1.5494     1.7029     0.2385 C.2     
   8 O8            -1.7087     2.9027     0.3511 O.2     
   9 N9            -2.5924     0.9119    -0.0824 N.am    
  10 C10           -3.9391     1.4799    -0.1822 C.3     
  11 C11           -2.3793    -0.5160    -0.3315 C.3     
  12 N12            3.3990    -0.6981     1.0487 N.pl3   
  13 C13            3.4391    -2.0849     1.1605 C.ar    
  14 C14            4.6459    -2.7237     1.4638 C.ar    
  15 C15            4.6795    -4.1185     1.5752 C.ar    
  16 C16            3.4596    -4.8115     1.3688 C.ar    
  17 C17            2.3316    -4.1113     1.0777 C.ar    
  18 N18            2.3355    -2.7908     0.9849 N.ar    
  19 S19            6.2667    -2.1049     1.7606 S.3     
  20 C20            6.8573    -3.7432     2.0082 C.2     
  21 N21            5.8916    -4.5922     1.8673 N.2     
  22 C22            8.2550    -4.0984     2.3307 C.ar    
  23 C23            8.6165    -5.4361     2.5073 C.ar    
  24 C24            9.9242    -5.7606     2.8085 C.ar    
  25 C25           10.8766    -4.7649     2.9356 C.ar    
  26 C26           10.5274    -3.4383     2.7624 C.ar    
  27 C27            9.2230    -3.0981     2.4548 C.ar    
  28 F28            8.8841    -1.8020     2.2803 F       
  29 Cl29           7.4239    -6.6877     2.3490 Cl      
  30 H30            0.8003     3.0161     0.6393 H       
  31 H31            3.0190     1.9345     1.0055 H       
  32 H32           -4.1161     1.8180    -1.2032 H       
  33 H33           -4.6744     0.7198     0.0815 H       
  34 H34           -4.0287     2.3246     0.5009 H       
  35 H35           -2.3832    -1.0546     0.6161 H       
  36 H36           -3.1773    -0.8966    -0.9691 H       
  37 H37           -1.4190    -0.6591    -0.8268 H       
  38 H38            4.2184    -0.1827     1.1101 H       
  39 H39            3.4272    -5.8886     1.4422 H       
  40 H40            1.4066    -4.6463     0.9215 H       
  41 H41           10.2046    -6.7945     2.9455 H       
  42 H42           11.8978    -5.0252     3.1717 H       
  43 H43           11.2760    -2.6664     2.8632 H       
@<TRIPOS>BOND
   1    1    2 ar
   2    1    6 ar
   3    1    7 1
   4    2    3 ar
   5    2   30 1
   6    3    4 ar
   7    3   31 1
   8    4    5 ar
   9    4   12 1
  10    5    6 ar
  11    7    8 2
  12    7    9 am
  13    9   10 1
  14    9   11 1
  15   10   32 1
  16   10   33 1
  17   10   34 1
  18   11   35 1
  19   11   36 1
  20   11   37 1
  21   12   13 1
  22   12   38 1
  23   13   14 ar
  24   13   18 ar
  25   14   15 ar
  26   14   19 1
  27   15   16 ar
  28   15   21 1
  29   16   17 ar
  30   16   39 1
  31   17   18 ar
  32   17   40 1
  33   19   20 1
  34   20   21 2
  35   20   22 1
  36   22   23 ar
  37   22   27 ar
  38   23   24 ar
  39   23   29 1
  40   24   25 ar
  41   24   41 1
  42   25   26 ar
  43   25   42 1
  44   26   27 ar
  45   26   43 1
  46   27   28 1

#	End of record

