#	Name: ASD07280001
#	Creating user name:	WinNT
#	Creation time:	15. 06. 2019 21:09

#	Modifying user name:	WinNT
#	Modification time:	15. 06. 2019 21:09

#	Program:	/corina/corina34_cracker 3.40 0067  02.08.2006

@<TRIPOS>MOLECULE
ASD07280001
  23   22    0    0    0
SMALL
NO_CHARGES


@<TRIPOS>ATOM
   1 C1            -0.0184     1.5028     0.0103 C.2     
   2 N2             1.3055    -0.4734    -0.4867 N.3     
   3 C3             0.0021    -0.0041     0.0020 C.3     
   4 C4            -0.2279    -0.5251     1.4221 C.3     
   5 O5             1.0236     2.1234     0.0037 O.2     
   6 N6            -1.1946     2.1607     0.0195 N.am    
   7 C7            -1.2145     3.6256     0.0275 C.3     
   8 C8            -1.1025     4.1450    -1.4072 C.3     
   9 C9            -2.5060     4.1071     0.6367 C.2     
  10 O10           -2.7457     5.4230     0.7487 O.3     
  11 O11           -3.3257     3.3086     1.0244 O.2     
  12 H12            2.0536    -0.1430     0.1043 H       
  13 H13            1.3222    -1.4794    -0.5627 H       
  14 H14           -0.7864    -0.3745    -0.6531 H       
  15 H15           -1.1950    -0.1768     1.7847 H       
  16 H16           -0.2131    -1.6149     1.4161 H       
  17 H17            0.5606    -0.1546     2.0772 H       
  18 H18           -2.0280     1.6644     0.0207 H       
  19 H19           -0.3749     3.9971     0.6150 H       
  20 H20           -1.9421     3.7735    -1.9947 H       
  21 H21           -1.1173     5.2349    -1.4012 H       
  22 H22           -0.1683     3.7967    -1.8479 H       
  23 H23           -3.5879     5.6836     1.1460 H       
@<TRIPOS>BOND
   1    1    3 1
   2    1    5 2
   3    1    6 am
   4    2    3 1
   5    2   12 1
   6    2   13 1
   7    3    4 1
   8    3   14 1
   9    4   15 1
  10    4   16 1
  11    4   17 1
  12    6    7 1
  13    6   18 1
  14    7    8 1
  15    7    9 1
  16    7   19 1
  17    8   20 1
  18    8   21 1
  19    8   22 1
  20    9   10 1
  21    9   11 2
  22   10   23 1

#	End of record

