#	Name: ASD01910047
#	Creating user name:	WinNT
#	Creation time:	15. 06. 2019 19:55

#	Modifying user name:	WinNT
#	Modification time:	15. 06. 2019 19:55

#	Program:	/corina/corina34_cracker 3.40 0067  02.08.2006

@<TRIPOS>MOLECULE
ASD01910047
  43   46    0    0    0
SMALL
NO_CHARGES


@<TRIPOS>ATOM
   1 C1            -0.0167     1.3767     0.0096 C.ar    
   2 C2             0.0021    -0.0041     0.0020 C.ar    
   3 C3             1.2080    -0.6808    -0.0131 C.ar    
   4 C4             2.3992     0.0229    -0.0203 C.ar    
   5 C5             2.3866     1.4050    -0.0127 C.ar    
   6 C6             1.1772     2.0865     0.0020 C.ar    
   7 N7             1.1610     3.4872     0.0092 N.pl3   
   8 C8             0.2433     4.2805    -0.6102 C.2     
   9 C9             0.5808     5.5733    -0.3617 C.2     
  10 C10            1.7414     5.5697     0.4349 C.2     
  11 N11            2.0821     4.3179     0.6597 N.2     
  12 N12           -0.8451     3.8450    -1.3638 N.am    
  13 C13           -1.6791     4.7431    -1.9244 C.2     
  14 C14           -2.8335     4.2812    -2.7236 C.ar    
  15 C15           -3.6993     5.2087    -3.3056 C.ar    
  16 C16           -4.7748     4.7709    -4.0503 C.ar    
  17 C17           -4.9963     3.4158    -4.2209 C.ar    
  18 C18           -4.1423     2.4912    -3.6464 C.ar    
  19 C19           -3.0594     2.9156    -2.9045 C.ar    
  20 C20            2.4540     6.7695     0.9396 C.ar    
  21 C21            3.5976     6.6257     1.7226 C.ar    
  22 C22            4.2564     7.7451     2.1895 C.ar    
  23 C23            3.7833     9.0079     1.8814 C.ar    
  24 C24            2.6483     9.1564     1.1049 C.ar    
  25 C25            1.9852     8.0440     0.6275 C.ar    
  26 O26           -1.4820     5.9331    -1.7726 O.2     
  27 Br27           4.0457    -0.9070    -0.0397 Br      
  28 H28           -0.9590     1.9044     0.0169 H       
  29 H29           -0.9262    -0.5561     0.0083 H       
  30 H30            1.2199    -1.7607    -0.0190 H       
  31 H31            3.3166     1.9542    -0.0179 H       
  32 H32            0.0530     6.4476    -0.7131 H       
  33 H33           -1.0023     2.8955    -1.4848 H       
  34 H34           -3.5277     6.2667    -3.1728 H       
  35 H35           -5.4457     5.4874    -4.5008 H       
  36 H36           -5.8398     3.0783    -4.8049 H       
  37 H37           -4.3212     1.4349    -3.7829 H       
  38 H38           -2.3935     2.1929    -2.4566 H       
  39 H39            3.9676     5.6402     1.9641 H       
  40 H40            5.1426     7.6348     2.7967 H       
  41 H41            4.3019     9.8811     2.2488 H       
  42 H42            2.2831    10.1447     0.8676 H       
  43 H43            1.0991     8.1611     0.0213 H       
@<TRIPOS>BOND
   1    1    2 ar
   2    1    6 ar
   3    1   28 1
   4    2    3 ar
   5    2   29 1
   6    3    4 ar
   7    3   30 1
   8    4    5 ar
   9    4   27 1
  10    5    6 ar
  11    5   31 1
  12    6    7 1
  13    7    8 1
  14    7   11 1
  15    8    9 2
  16    8   12 1
  17    9   10 1
  18    9   32 1
  19   10   11 2
  20   10   20 1
  21   12   13 am
  22   12   33 1
  23   13   14 1
  24   13   26 2
  25   14   15 ar
  26   14   19 ar
  27   15   16 ar
  28   15   34 1
  29   16   17 ar
  30   16   35 1
  31   17   18 ar
  32   17   36 1
  33   18   19 ar
  34   18   37 1
  35   19   38 1
  36   20   21 ar
  37   20   25 ar
  38   21   22 ar
  39   21   39 1
  40   22   23 ar
  41   22   40 1
  42   23   24 ar
  43   23   41 1
  44   24   25 ar
  45   24   42 1
  46   25   43 1

#	End of record

