#	Name: ASD08830205
#	Creating user name:	WinNT
#	Creation time:	15. 06. 2019 21:20

#	Modifying user name:	WinNT
#	Modification time:	15. 06. 2019 21:20

#	Program:	/corina/corina34_cracker 3.40 0067  02.08.2006

@<TRIPOS>MOLECULE
ASD08830205
  50   53    0    0    0
SMALL
NO_CHARGES


@<TRIPOS>ATOM
   1 C1            -0.3816     1.6608    -1.1958 C.ar    
   2 C2            -0.4547     0.2114    -1.4246 C.2     
   3 C3            -1.7603    -0.4226    -1.8303 C.3     
   4 C4            -1.5635    -1.9300    -2.0028 C.3     
   5 N5            -2.8362    -2.5479    -2.3983 N.3     
   6 O6             0.5358    -0.4750    -1.2870 O.2     
   7 C7            -1.5371     2.4532    -1.3514 C.ar    
   8 C8            -2.6391    -3.9476    -2.8025 C.3     
   9 C9            -3.9949    -4.5689    -3.1484 C.3     
  10 O10           -4.6220    -3.7927    -4.1728 O.3     
  11 C11           -4.8298    -2.4243    -3.8125 C.3     
  12 C12           -3.4825    -1.7812    -3.4733 C.3     
  13 C13            0.8244     2.2403    -0.8219 C.ar    
  14 C14            0.8867     3.6230    -0.6054 C.ar    
  15 C15           -0.2831     4.4097    -0.7714 C.ar    
  16 C16           -1.4930     3.7924    -1.1455 C.ar    
  17 C17            2.0924     4.2423    -0.2253 C.ar    
  18 C18            2.1293     5.5849    -0.0203 C.ar    
  19 C19            0.9797     6.3684    -0.1820 C.ar    
  20 C20           -0.2179     5.7930    -0.5541 C.ar    
  21 N21            1.0462     7.7440     0.0350 N.pl3   
  22 C22           -0.0514     8.4194     0.5582 C.ar    
  23 N23           -1.1116     7.7359     0.9608 N.ar    
  24 C24           -2.1730     8.3377     1.4632 C.ar    
  25 C25           -2.2153     9.7120     1.5872 C.ar    
  26 C26           -1.1236    10.4659     1.1766 C.ar    
  27 C27           -0.0233     9.8068     0.6593 C.ar    
  28 H28           -2.5082    -0.2397    -1.0587 H       
  29 H29           -2.0970     0.0101    -2.7724 H       
  30 H30           -0.8156    -2.1128    -2.7744 H       
  31 H31           -1.2268    -2.3626    -1.0607 H       
  32 H32           -2.4684     1.9878    -1.6385 H       
  33 H33           -1.9877    -3.9860    -3.6757 H       
  34 H34           -2.1829    -4.5025    -1.9827 H       
  35 H35           -3.8478    -5.5890    -3.5033 H       
  36 H36           -4.6275    -4.5793    -2.2609 H       
  37 H37           -5.2866    -1.8933    -4.6476 H       
  38 H38           -5.4867    -2.3724    -2.9442 H       
  39 H39           -3.6420    -0.7548    -3.1431 H       
  40 H40           -2.8446    -1.7850    -4.3572 H       
  41 H41            1.7066     1.6297    -0.6989 H       
  42 H42           -2.3853     4.3873    -1.2729 H       
  43 H43            2.9869     3.6509    -0.0965 H       
  44 H44            3.0573     6.0542     0.2715 H       
  45 H45           -1.0997     6.4045    -0.6766 H       
  46 H46            1.8579     8.2301    -0.1789 H       
  47 H47           -3.0197     7.7476     1.7813 H       
  48 H48           -3.0886    10.1959     1.9990 H       
  49 H49           -1.1321    11.5424     1.2632 H       
  50 H50            0.8427    10.3621     0.3304 H       
@<TRIPOS>BOND
   1    1    2 1
   2    1   13 ar
   3    1    7 ar
   4    2    3 1
   5    2    6 2
   6    3    4 1
   7    3   28 1
   8    3   29 1
   9    4    5 1
  10    4   30 1
  11    4   31 1
  12    5    8 1
  13    5   12 1
  14    7   16 ar
  15    7   32 1
  16    8    9 1
  17    8   33 1
  18    8   34 1
  19    9   10 1
  20    9   35 1
  21    9   36 1
  22   10   11 1
  23   11   12 1
  24   11   37 1
  25   11   38 1
  26   12   39 1
  27   12   40 1
  28   13   14 ar
  29   13   41 1
  30   14   15 ar
  31   14   17 ar
  32   15   16 ar
  33   15   20 ar
  34   16   42 1
  35   17   18 ar
  36   17   43 1
  37   18   19 ar
  38   18   44 1
  39   19   20 ar
  40   19   21 1
  41   20   45 1
  42   21   22 1
  43   21   46 1
  44   22   23 ar
  45   22   27 ar
  46   23   24 ar
  47   24   25 ar
  48   24   47 1
  49   25   26 ar
  50   25   48 1
  51   26   27 ar
  52   26   49 1
  53   27   50 1

#	End of record

