#	Name: ASD01230474
#	Creating user name:	WinNT
#	Creation time:	15. 06. 2019 19:14

#	Modifying user name:	WinNT
#	Modification time:	15. 06. 2019 19:14

#	Program:	/corina/corina34_cracker 3.40 0067  02.08.2006

@<TRIPOS>MOLECULE
ASD01230474
  63   66    0    0    0
SMALL
NO_CHARGES


@<TRIPOS>ATOM
   1 S1            -7.6324    -8.5331     6.4621 S.o2    
   2 N2            -6.1313    -8.1701     5.8680 N.am    
   3 C3            -5.0371    -8.6956     6.3632 C.2     
   4 N4            -4.9821    -9.5824     7.4005 N.pl3   
   5 C5            -6.1537   -10.0276     8.1595 C.3     
   6 C6            -7.3724   -10.1580     7.2413 C.3     
   7 C7            -3.7718    -8.2751     5.7244 C.2     
   8 C8            -2.5845    -8.8166     6.1670 C.2     
   9 C9            -2.6113    -9.7494     7.2129 C.2     
  10 C10           -3.7730   -10.1045     7.7880 C.2     
  11 C11           -3.7803    -7.2854     4.6232 C.ar    
  12 C12           -3.3741    -7.6611     3.3422 C.ar    
  13 C13           -3.3838    -6.7369     2.3191 C.ar    
  14 C14           -3.7967    -5.4335     2.5624 C.ar    
  15 C15           -4.2016    -5.0561     3.8360 C.ar    
  16 C16           -4.2000    -5.9764     4.8627 C.ar    
  17 O17           -3.8042    -4.5252     1.5519 O.3     
  18 C18           -4.9268    -4.4254     0.7916 C.ar    
  19 C19           -6.0571    -5.1580     1.1239 C.ar    
  20 C20           -7.1977    -5.0562     0.3517 C.ar    
  21 C21           -7.2130    -4.2218    -0.7563 C.ar    
  22 C22           -6.0828    -3.4896    -1.0889 C.ar    
  23 C23           -4.9441    -3.5866    -0.3133 C.ar    
  24 O24           -8.3358    -4.1220    -1.5167 O.3     
  25 Si25          -9.3615    -2.9491    -1.0345 Si      
  26 C26           -9.9098    -3.2839     0.7142 C.3     
  27 C27           -8.4983    -1.2998    -1.1096 C.3     
  28 C28          -10.8479    -2.9237    -2.1573 C.3     
  29 C29          -11.5568    -4.2782    -2.0956 C.3     
  30 C30          -11.8100    -1.8234    -1.7050 C.3     
  31 C31          -10.3976    -2.6487    -3.5935 C.3     
  32 O32           -7.8788    -7.5363     7.4444 O.2     
  33 O33           -8.4541    -8.6524     5.3090 O.2     
  34 H34           -5.9410   -10.9952     8.6142 H       
  35 H35           -6.3705    -9.3025     8.9439 H       
  36 H36           -8.2499   -10.4344     7.8258 H       
  37 H37           -7.1823   -10.9107     6.4763 H       
  38 H38           -1.6475    -8.5270     5.7146 H       
  39 H39           -1.6876   -10.1879     7.5607 H       
  40 H40           -3.7545   -10.8303     8.5874 H       
  41 H41           -3.0523    -8.6744     3.1525 H       
  42 H42           -3.0696    -7.0269     1.3273 H       
  43 H43           -4.5221    -4.0416     4.0216 H       
  44 H44           -4.5192    -5.6834     5.8519 H       
  45 H45           -6.0450    -5.8082     1.9861 H       
  46 H46           -8.0776    -5.6265     0.6104 H       
  47 H47           -6.0946    -2.8406    -1.9520 H       
  48 H48           -4.0657    -3.0128    -0.5695 H       
  49 H49           -9.0401    -3.2987     1.3711 H       
  50 H50          -10.5952    -2.5001     1.0365 H       
  51 H51          -10.4148    -4.2488     0.7582 H       
  52 H52           -8.1775    -1.1039    -2.1328 H       
  53 H53           -9.1837    -0.5160    -0.7874 H       
  54 H54           -7.6286    -1.3147    -0.4527 H       
  55 H55          -11.8776    -4.4741    -1.0725 H       
  56 H56          -12.4265    -4.2633    -2.7526 H       
  57 H57          -10.8714    -5.0620    -2.4179 H       
  58 H58          -11.3050    -0.8585    -1.7489 H       
  59 H59          -12.6797    -1.8086    -2.3619 H       
  60 H60          -12.1308    -2.0193    -0.6818 H       
  61 H61           -9.7121    -3.4326    -3.9157 H       
  62 H62          -11.2672    -2.6339    -4.2504 H       
  63 H63           -9.8925    -1.6838    -3.6374 H       
@<TRIPOS>BOND
   1    1    2 am
   2    1    6 1
   3    1   32 2
   4    1   33 2
   5    2    3 2
   6    3    4 1
   7    3    7 1
   8    4    5 1
   9    4   10 1
  10    5    6 1
  11    5   34 1
  12    5   35 1
  13    6   36 1
  14    6   37 1
  15    7    8 2
  16    7   11 1
  17    8    9 1
  18    8   38 1
  19    9   10 2
  20    9   39 1
  21   10   40 1
  22   11   12 ar
  23   11   16 ar
  24   12   13 ar
  25   12   41 1
  26   13   14 ar
  27   13   42 1
  28   14   15 ar
  29   14   17 1
  30   15   16 ar
  31   15   43 1
  32   16   44 1
  33   17   18 1
  34   18   19 ar
  35   18   23 ar
  36   19   20 ar
  37   19   45 1
  38   20   21 ar
  39   20   46 1
  40   21   22 ar
  41   21   24 1
  42   22   23 ar
  43   22   47 1
  44   23   48 1
  45   24   25 1
  46   25   26 1
  47   25   27 1
  48   25   28 1
  49   26   49 1
  50   26   50 1
  51   26   51 1
  52   27   52 1
  53   27   53 1
  54   27   54 1
  55   28   29 1
  56   28   31 1
  57   28   30 1
  58   29   55 1
  59   29   56 1
  60   29   57 1
  61   30   58 1
  62   30   59 1
  63   30   60 1
  64   31   61 1
  65   31   62 1
  66   31   63 1

#	End of record

