#	Name: ASD01916673
#	Creating user name:	WinNT
#	Creation time:	15. 06. 2019 20:07

#	Modifying user name:	WinNT
#	Modification time:	15. 06. 2019 20:07

#	Program:	/corina/corina34_cracker 3.40 0067  02.08.2006

@<TRIPOS>MOLECULE
ASD01916673
  46   49    0    0    0
SMALL
NO_CHARGES


@<TRIPOS>ATOM
   1 C1            -0.0082     1.4871    -0.0845 C.ar    
   2 C2             0.0386     0.0741    -0.1283 C.ar    
   3 C3            -1.1393    -0.6721    -0.0817 C.ar    
   4 C4            -2.3436    -0.0361    -0.0070 C.ar    
   5 C5            -2.4090     1.3656     0.0213 C.ar    
   6 C6            -1.2434     2.1278    -0.0158 C.ar    
   7 N7             1.1551     2.1760    -0.1003 N.2     
   8 C8             2.3254     1.5931    -0.1821 C.2     
   9 N9             2.4493     0.2505    -0.3359 N.am    
  10 C10            1.3575    -0.5561    -0.2371 C.2     
  11 C11           -3.7186     2.0352     0.0907 C.2     
  12 O12            1.4732    -1.7681    -0.2387 O.2     
  13 C13           -3.8449     3.1979     0.7545 C.2     
  14 C14            3.5268     2.4909    -0.0442 C.3     
  15 C15            4.7839     1.8770    -0.6199 C.3     
  16 C16            4.9253     0.4134    -0.2552 C.3     
  17 C17            3.7155    -0.3984    -0.6590 C.3     
  18 C18            6.1606    -0.1552    -0.9564 C.3     
  19 C19            5.1189     0.2958     1.2579 C.3     
  20 Cl20          -2.5176     3.8122     1.6897 Cl      
  21 C21           -5.1105     3.9508     0.6880 C.ar    
  22 N22           -6.1239     3.4760    -0.0295 N.ar    
  23 C23           -7.2703     4.1185    -0.1134 C.ar    
  24 C24           -7.4624     5.3192     0.5462 C.ar    
  25 C25           -6.4307     5.8520     1.3073 C.ar    
  26 C26           -5.2383     5.1552     1.3843 C.ar    
  27 H27           -1.0977    -1.7511    -0.1051 H       
  28 H28           -3.2541    -0.6157     0.0302 H       
  29 H29           -1.2970     3.2062     0.0088 H       
  30 H30           -4.5776     1.5925    -0.3915 H       
  31 H31            3.3256     3.4297    -0.5601 H       
  32 H32            3.6899     2.7006     1.0129 H       
  33 H33            4.7577     1.9701    -1.7056 H       
  34 H34            5.6489     2.4212    -0.2407 H       
  35 H35            3.7548    -1.3613    -0.1498 H       
  36 H36            3.7545    -0.5728    -1.7343 H       
  37 H37            7.0461     0.3922    -0.6332 H       
  38 H38            6.2711    -1.2089    -0.7001 H       
  39 H39            6.0447    -0.0540    -2.0355 H       
  40 H40            4.2550     0.7208     1.7689 H       
  41 H41            5.2218    -0.7546     1.5305 H       
  42 H42            6.0179     0.8373     1.5523 H       
  43 H43           -8.0717     3.7025    -0.7059 H       
  44 H44           -8.4066     5.8377     0.4696 H       
  45 H45           -6.5578     6.7880     1.8310 H       
  46 H46           -4.4152     5.5407     1.9676 H       
@<TRIPOS>BOND
   1    1    2 ar
   2    1    7 1
   3    1    6 ar
   4    2    3 ar
   5    2   10 1
   6    3    4 ar
   7    3   27 1
   8    4    5 ar
   9    4   28 1
  10    5    6 ar
  11    5   11 1
  12    6   29 1
  13    7    8 2
  14    8    9 1
  15    8   14 1
  16    9   10 am
  17    9   17 1
  18   10   12 2
  19   11   13 2
  20   11   30 1
  21   13   20 1
  22   13   21 1
  23   14   15 1
  24   14   31 1
  25   14   32 1
  26   15   16 1
  27   15   33 1
  28   15   34 1
  29   16   17 1
  30   16   18 1
  31   16   19 1
  32   17   35 1
  33   17   36 1
  34   18   37 1
  35   18   38 1
  36   18   39 1
  37   19   40 1
  38   19   41 1
  39   19   42 1
  40   21   22 ar
  41   21   26 ar
  42   22   23 ar
  43   23   24 ar
  44   23   43 1
  45   24   25 ar
  46   24   44 1
  47   25   26 ar
  48   25   45 1
  49   26   46 1

#	End of record

