#	Name: ASD01814780
#	Creating user name:	WinNT
#	Creation time:	15. 06. 2019 19:33

#	Modifying user name:	WinNT
#	Modification time:	15. 06. 2019 19:33

#	Program:	/corina/corina34_cracker 3.40 0067  02.08.2006

@<TRIPOS>MOLECULE
ASD01814780
  61   65    0    0    0
SMALL
NO_CHARGES


@<TRIPOS>ATOM
   1 C1            -0.1116     1.0933    -0.0197 C.2     
   2 C2            -0.0684    -0.3082    -0.0651 C.2     
   3 C3             1.1336    -0.9460     0.0084 C.2     
   4 C4             2.3120    -0.1873     0.1287 C.2     
   5 N5             2.2408     1.1808     0.1711 N.am    
   6 C6             1.0295     1.8066     0.0961 C.2     
   7 C7             3.5477    -0.8365     0.2046 C.2     
   8 C8             4.7056    -0.0956     0.3226 C.2     
   9 C9             4.6199     1.3015     0.3644 C.2     
  10 C10            3.3613     1.9212     0.2860 C.2     
  11 O11            3.2820     3.1392     0.3216 O.2     
  12 C12            5.8435     2.1177     0.4902 C.2     
  13 O13            5.9891     2.9659     1.5415 O.3     
  14 C14            6.8067     2.0223    -0.4287 C.2     
  15 C15            3.6149    -2.3413     0.1581 C.3     
  16 N16            3.8662    -2.7778    -1.2219 N.3     
  17 C17            4.1729    -4.2130    -1.2722 C.3     
  18 C18            4.2849    -4.6612    -2.7312 C.3     
  19 C19            5.3908    -3.8593    -3.4229 C.3     
  20 C20            5.0717    -2.3657    -3.3141 C.3     
  21 C21            4.9369    -1.9841    -1.8382 C.3     
  22 C22            6.7114    -4.1422    -2.7543 C.ar    
  23 C23            7.1212    -5.4478    -2.5582 C.ar    
  24 C24            8.3325    -5.7073    -1.9449 C.ar    
  25 C25            9.1343    -4.6612    -1.5280 C.ar    
  26 C26            8.7249    -3.3556    -1.7249 C.ar    
  27 C27            7.5155    -3.0961    -2.3421 C.ar    
  28 C28            5.4656    -4.2538    -4.8755 C.ar    
  29 C29            6.4496    -3.7204    -5.6867 C.ar    
  30 C30            6.5181    -4.0822    -7.0191 C.ar    
  31 C31            5.6030    -4.9777    -7.5402 C.ar    
  32 C32            4.6196    -5.5118    -6.7287 C.ar    
  33 C33            4.5537    -5.1533    -5.3952 C.ar    
  34 H34           -1.0610     1.6043    -0.0820 H       
  35 H35           -0.9814    -0.8777    -0.1573 H       
  36 H36            1.1811    -2.0244    -0.0251 H       
  37 H37            0.9833     2.8851     0.1302 H       
  38 H38            5.6656    -0.5868     0.3823 H       
  39 H39            6.8221     3.4569     1.5382 H       
  40 H40            6.7278     1.2914    -1.2199 H       
  41 H41            7.6651     2.6760    -0.3811 H       
  42 H42            4.4227    -2.6890     0.8019 H       
  43 H43            2.6692    -2.7581     0.5045 H       
  44 H44            5.1172    -4.4008    -0.7611 H       
  45 H45            3.3767    -4.7720    -0.7807 H       
  46 H46            4.5279    -5.7231    -2.7681 H       
  47 H47            3.3365    -4.4865    -3.2394 H       
  48 H48            5.8769    -1.7876    -3.7674 H       
  49 H49            4.1358    -2.1549    -3.8314 H       
  50 H50            4.6956    -0.9242    -1.7577 H       
  51 H51            5.8776    -2.1822    -1.3245 H       
  52 H52            6.4948    -6.2651    -2.8839 H       
  53 H53            8.6523    -6.7273    -1.7910 H       
  54 H54           10.0803    -4.8639    -1.0481 H       
  55 H55            9.3511    -2.5383    -1.3988 H       
  56 H56            7.1974    -2.0761    -2.4993 H       
  57 H57            7.1645    -3.0208    -5.2797 H       
  58 H58            7.2865    -3.6650    -7.6531 H       
  59 H59            5.6561    -5.2599    -8.5813 H       
  60 H60            3.9044    -6.2112    -7.1358 H       
  61 H61            3.7876    -5.5734    -4.7603 H       
@<TRIPOS>BOND
   1    1    2 1
   2    1    6 2
   3    1   34 1
   4    2    3 2
   5    2   35 1
   6    3    4 1
   7    3   36 1
   8    4    5 1
   9    4    7 2
  10    5    6 1
  11    5   10 am
  12    6   37 1
  13    7   15 1
  14    7    8 1
  15    8    9 2
  16    8   38 1
  17    9   10 1
  18    9   12 1
  19   10   11 2
  20   12   13 1
  21   12   14 2
  22   13   39 1
  23   14   40 1
  24   14   41 1
  25   15   16 1
  26   15   42 1
  27   15   43 1
  28   16   17 1
  29   16   21 1
  30   17   18 1
  31   17   44 1
  32   17   45 1
  33   18   19 1
  34   18   46 1
  35   18   47 1
  36   19   20 1
  37   19   22 1
  38   19   28 1
  39   20   21 1
  40   20   48 1
  41   20   49 1
  42   21   50 1
  43   21   51 1
  44   22   23 ar
  45   22   27 ar
  46   23   24 ar
  47   23   52 1
  48   24   25 ar
  49   24   53 1
  50   25   26 ar
  51   25   54 1
  52   26   27 ar
  53   26   55 1
  54   27   56 1
  55   28   29 ar
  56   28   33 ar
  57   29   30 ar
  58   29   57 1
  59   30   31 ar
  60   30   58 1
  61   31   32 ar
  62   31   59 1
  63   32   33 ar
  64   32   60 1
  65   33   61 1

#	End of record

