#	Name: ASD00191020
#	Creating user name:	WinNT
#	Creation time:	15. 06. 2019 18:33

#	Modifying user name:	WinNT
#	Modification time:	15. 06. 2019 18:33

#	Program:	/corina/corina34_cracker 3.40 0067  02.08.2006

@<TRIPOS>MOLECULE
ASD00191020
  48   52    0    0    0
SMALL
NO_CHARGES


@<TRIPOS>ATOM
   1 C1            -0.0142     1.3576     0.0073 C.ar    
   2 C2             0.0049    -0.0052    -0.0076 C.ar    
   3 C3             1.2068    -0.7047    -0.0371 C.ar    
   4 C4             2.3990    -0.0413    -0.0515 C.ar    
   5 C5             2.4138     1.3571    -0.0369 C.ar    
   6 C6             1.1926     2.0734    -0.0073 C.ar    
   7 C7             3.6589     2.1125    -0.0518 C.ar    
   8 C8             3.5789     3.5085    -0.0359 C.ar    
   9 C9             2.3057     4.1210    -0.0063 C.ar    
  10 N10            1.1984     3.4146     0.0065 N.ar    
  11 N11            4.9900     1.8002    -0.0797 N.pl3   
  12 C12            5.6815     2.9726    -0.0804 C.2     
  13 N13            4.8504     3.9750    -0.0546 N.2     
  14 C14            7.1835     3.0928    -0.1065 C.3     
  15 C15            7.7279     2.9936     1.3199 C.3     
  16 C16            9.2528     3.1155     1.2933 C.3     
  17 C17            9.8400     1.9868     0.4436 C.3     
  18 C18            9.2956     2.0860    -0.9828 C.3     
  19 C19            7.7707     1.9640    -0.9562 C.3     
  20 N20            2.2231     5.5041     0.0095 N.pl3   
  21 C21            0.9773     6.1309    -0.0812 C.ar    
  22 C22            0.7430     7.3158     0.6042 C.ar    
  23 C23           -0.4905     7.9330     0.5123 C.ar    
  24 C24           -1.4908     7.3707    -0.2612 C.ar    
  25 C25           -1.2597     6.1908    -0.9446 C.ar    
  26 C26           -0.0276     5.5728    -0.8617 C.ar    
  27 Cl27          -0.7852     9.4142     1.3683 Cl      
  28 H28           -0.9563     1.8853     0.0257 H       
  29 H29           -0.9274    -0.5502     0.0041 H       
  30 H30            1.1963    -1.7846    -0.0484 H       
  31 H31            3.3269    -0.5935    -0.0737 H       
  32 H32            5.3709     0.9082    -0.0959 H       
  33 H33            7.4636     4.0545    -0.5363 H       
  34 H34            7.3096     3.7977     1.9252 H       
  35 H35            7.4478     2.0318     1.7496 H       
  36 H36            9.5330     4.0773     0.8636 H       
  37 H37            9.6407     3.0448     2.3095 H       
  38 H38           10.9264     2.0737     0.4247 H       
  39 H39            9.5599     1.0250     0.8734 H       
  40 H40            9.5757     3.0477    -1.4125 H       
  41 H41            9.7139     1.2818    -1.5881 H       
  42 H42            7.4905     1.0023    -0.5265 H       
  43 H43            7.3828     2.0347    -1.9724 H       
  44 H44            3.0301     6.0373     0.0835 H       
  45 H45            1.5234     7.7543     1.2085 H       
  46 H46           -2.4540     7.8541    -0.3311 H       
  47 H47           -2.0425     5.7544    -1.5471 H       
  48 H48            0.1517     4.6514    -1.3957 H       
@<TRIPOS>BOND
   1    1    2 ar
   2    1    6 ar
   3    1   28 1
   4    2    3 ar
   5    2   29 1
   6    3    4 ar
   7    3   30 1
   8    4    5 ar
   9    4   31 1
  10    5    6 ar
  11    5    7 ar
  12    6   10 ar
  13    7    8 ar
  14    7   11 1
  15    8    9 ar
  16    8   13 1
  17    9   10 ar
  18    9   20 1
  19   11   12 1
  20   11   32 1
  21   12   13 2
  22   12   14 1
  23   14   15 1
  24   14   19 1
  25   14   33 1
  26   15   16 1
  27   15   34 1
  28   15   35 1
  29   16   17 1
  30   16   36 1
  31   16   37 1
  32   17   18 1
  33   17   38 1
  34   17   39 1
  35   18   19 1
  36   18   40 1
  37   18   41 1
  38   19   42 1
  39   19   43 1
  40   20   21 1
  41   20   44 1
  42   21   22 ar
  43   21   26 ar
  44   22   23 ar
  45   22   45 1
  46   23   24 ar
  47   23   27 1
  48   24   25 ar
  49   24   46 1
  50   25   26 ar
  51   25   47 1
  52   26   48 1

#	End of record

