#	Name: ASD01440087
#	Creating user name:	WinNT
#	Creation time:	15. 06. 2019 19:21

#	Modifying user name:	WinNT
#	Modification time:	15. 06. 2019 19:21

#	Program:	/corina/corina34_cracker 3.40 0067  02.08.2006

@<TRIPOS>MOLECULE
ASD01440087
  97  102    0    0    0
SMALL
NO_CHARGES


@<TRIPOS>ATOM
   1 N1             0.0097     1.3383    -0.0064 N.ar    
   2 C2             0.0199     0.0159    -0.0131 C.ar    
   3 C3             1.2206    -0.6826    -0.0231 C.ar    
   4 C4             2.4105     0.0238    -0.0261 C.ar    
   5 C5             2.3569     1.4111    -0.0188 C.ar    
   6 C6             1.1277     2.0394    -0.0090 C.ar    
   7 C7             1.2273    -2.1896    -0.0301 C.3     
   8 C8             0.4966    -2.7292     1.1810 C.2     
   9 C9             0.4322    -2.7176    -1.2025 C.ar    
  10 N10            2.6016    -2.6956    -0.0684 N.am    
  11 C11           -0.6132    -3.4613    -0.6622 C.ar    
  12 C12            0.5760    -2.5848    -2.5608 C.ar    
  13 C13           -0.3382    -3.2035    -3.4204 C.ar    
  14 C14           -1.3898    -3.9515    -2.8840 C.ar    
  15 C15           -1.5251    -4.0774    -1.5211 C.ar    
  16 C16           -0.1976    -3.0709    -4.8393 C.1     
  17 N17           -0.5449    -3.4466     0.7281 N.am    
  18 C18           -2.9304    -3.0911     2.0538 C.ar    
  19 C19           -2.6745    -1.9362     2.7782 C.ar    
  20 C20           -4.2080    -3.3489     1.5955 C.ar    
  21 C21           -5.2309    -2.4566     1.8579 C.ar    
  22 C22           -4.9783    -1.3045     2.5798 C.ar    
  23 C23           -3.7029    -1.0425     3.0406 C.ar    
  24 O24           -1.4187    -1.6806     3.2305 O.3     
  25 O25            0.7959    -2.5483     2.3423 O.2     
  26 C26            3.4659    -2.3736     0.9144 C.2     
  27 O27            3.1308    -1.5977     1.7885 O.2     
  28 N28            4.7014    -2.9118     0.9283 N.am    
  29 C29            5.0823    -3.9374    -0.0524 C.3     
  30 C30            5.6240    -5.1589     0.6967 C.3     
  31 C31            6.7613    -4.7215     1.6226 C.3     
  32 C32            6.2281    -3.7215     2.6511 C.3     
  33 C33            5.6951    -2.4796     1.9206 C.3     
  34 C34            7.3279    -5.9443     2.3468 C.3     
  35 C35            7.8634    -6.9451     1.3191 C.3     
  36 C36            8.4834    -8.1377     2.0508 C.3     
  37 N37            9.5721    -7.6695     2.9179 N.3     
  38 C38            9.0737    -6.7436     3.9429 C.3     
  39 C39            8.4713    -5.5093     3.2678 C.3     
  40 C40           10.2809    -8.8010     3.5305 C.3     
  41 O41           -1.1536    -0.6650    -0.0096 O.3     
  42 C42           -2.3538     0.1106     0.0013 C.3     
  43 C43           -3.5651    -0.8241     0.0037 C.3     
  44 N44           -0.0861    -2.9658    -5.9649 N.1     
  45 C45           -1.2286    -0.4724     3.9694 C.3     
  46 C46            0.2374    -0.3582     4.3919 C.3     
  47 C47           11.5497    -8.2951     4.2199 C.3     
  48 C48           12.2879    -9.4736     4.8579 C.3     
  49 S49           -1.6256    -4.2250     1.7123 S.o2    
  50 O50           -2.1951    -5.2699     0.9357 O.2     
  51 O51           -0.9559    -4.4494     2.9453 O.2     
  52 H52            3.3592    -0.4922    -0.0334 H       
  53 H53            3.2670     1.9924    -0.0206 H       
  54 H54            1.0805     3.1184    -0.0037 H       
  55 H55            2.8896    -3.2623    -0.8011 H       
  56 H56            1.3921    -2.0042    -2.9649 H       
  57 H57           -2.0990    -4.4317    -3.5419 H       
  58 H58           -2.3403    -4.6567    -1.1133 H       
  59 H59           -4.4078    -4.2479     1.0314 H       
  60 H60           -6.2288    -2.6595     1.4981 H       
  61 H61           -5.7791    -0.6090     2.7835 H       
  62 H62           -3.5063    -0.1429     3.6050 H       
  63 H63            4.2091    -4.2253    -0.6378 H       
  64 H64            5.8538    -3.5423    -0.7134 H       
  65 H65            4.8253    -5.6067     1.2880 H       
  66 H66            5.9992    -5.8887    -0.0207 H       
  67 H67            7.5488    -4.2514     1.0335 H       
  68 H68            5.4237    -4.1828     3.2240 H       
  69 H69            7.0333    -3.4282     3.3247 H       
  70 H70            6.5181    -1.9674     1.4222 H       
  71 H71            5.2246    -1.8074     2.6382 H       
  72 H72            6.5418    -6.4144     2.9377 H       
  73 H73            7.0452    -7.2910     0.6875 H       
  74 H74            8.6214    -6.4627     0.7020 H       
  75 H75            7.7216    -8.6280     2.6569 H       
  76 H76            8.8784    -8.8455     1.3220 H       
  77 H77            8.3091    -7.2403     4.5402 H       
  78 H78            9.8974    -6.4388     4.5884 H       
  79 H79            9.2388    -5.0043     2.6813 H       
  80 H80            8.0874    -4.8294     4.0283 H       
  81 H81            9.6341    -9.2798     4.2658 H       
  82 H82           10.5496    -9.5222     2.7587 H       
  83 H83           -2.3748     0.7349     0.8945 H       
  84 H84           -2.3852     0.7438    -0.8854 H       
  85 H85           -4.4805    -0.2325     0.0120 H       
  86 H86           -3.5440    -1.4484    -0.8896 H       
  87 H87           -3.5336    -1.4573     0.8903 H       
  88 H88           -1.4944     0.3808     3.3453 H       
  89 H89           -1.8623    -0.4853     4.8562 H       
  90 H90            0.5032    -1.2114     5.0160 H       
  91 H91            0.8712    -0.3453     3.5052 H       
  92 H92            0.3824     0.5635     4.9556 H       
  93 H93           12.1964    -7.8164     3.4846 H       
  94 H94           11.2809    -7.5739     4.9917 H       
  95 H95           11.6411    -9.9524     5.5932 H       
  96 H96           12.5566   -10.1949     4.0861 H       
  97 H97           13.1918    -9.1132     5.3490 H       
@<TRIPOS>BOND
   1    1    2 ar
   2    1    6 ar
   3    2    3 ar
   4    2   41 1
   5    3    4 ar
   6    3    7 1
   7    4    5 ar
   8    4   52 1
   9    5    6 ar
  10    5   53 1
  11    6   54 1
  12    7    8 1
  13    7    9 1
  14    7   10 1
  15    8   17 am
  16    8   25 2
  17    9   11 ar
  18    9   12 ar
  19   10   26 am
  20   10   55 1
  21   11   17 1
  22   11   15 ar
  23   12   13 ar
  24   12   56 1
  25   13   14 ar
  26   13   16 1
  27   14   15 ar
  28   14   57 1
  29   15   58 1
  30   16   44 3
  31   17   49 am
  32   18   19 ar
  33   18   20 ar
  34   18   49 1
  35   19   24 1
  36   19   23 ar
  37   20   21 ar
  38   20   59 1
  39   21   22 ar
  40   21   60 1
  41   22   23 ar
  42   22   61 1
  43   23   62 1
  44   24   45 1
  45   26   27 2
  46   26   28 am
  47   28   29 1
  48   28   33 1
  49   29   30 1
  50   29   63 1
  51   29   64 1
  52   30   31 1
  53   30   65 1
  54   30   66 1
  55   31   32 1
  56   31   34 1
  57   31   67 1
  58   32   33 1
  59   32   68 1
  60   32   69 1
  61   33   70 1
  62   33   71 1
  63   34   35 1
  64   34   39 1
  65   34   72 1
  66   35   36 1
  67   35   73 1
  68   35   74 1
  69   36   37 1
  70   36   75 1
  71   36   76 1
  72   37   38 1
  73   37   40 1
  74   38   39 1
  75   38   77 1
  76   38   78 1
  77   39   79 1
  78   39   80 1
  79   40   47 1
  80   40   81 1
  81   40   82 1
  82   41   42 1
  83   42   43 1
  84   42   83 1
  85   42   84 1
  86   43   85 1
  87   43   86 1
  88   43   87 1
  89   45   46 1
  90   45   88 1
  91   45   89 1
  92   46   90 1
  93   46   91 1
  94   46   92 1
  95   47   48 1
  96   47   93 1
  97   47   94 1
  98   48   95 1
  99   48   96 1
 100   48   97 1
 101   49   50 2
 102   49   51 2

#	End of record

