#	Name: ASD00731030
#	Creating user name:	WinNT
#	Creation time:	15. 06. 2019 18:37

#	Modifying user name:	WinNT
#	Modification time:	15. 06. 2019 18:37

#	Program:	/corina/corina34_cracker 3.40 0067  02.08.2006

@<TRIPOS>MOLECULE
ASD00731030
 229  231    0    0    0
SMALL
NO_CHARGES


@<TRIPOS>ATOM
   1 C1            -0.0506     1.4474    -0.0340 C.2     
   2 O2            -0.1966     0.2500    -0.1597 O.2     
   3 N3             2.3261     0.9571    -0.0397 N.am    
   4 C4             1.3355     2.0325     0.0522 C.3     
   5 C5             1.5452     3.0187    -1.0986 C.3     
   6 C6             1.4609     2.2838    -2.4116 C.2     
   7 O7             1.1835     1.1080    -2.4291 O.2     
   8 O8             1.6941     2.9356    -3.5617 O.3     
   9 C9            -3.4278     2.7331    -0.5860 C.2     
  10 O10           -3.0212     3.8437    -0.8547 O.2     
  11 N11           -1.1278     2.2554     0.0232 N.am    
  12 C12           -2.4752     1.6872    -0.0666 C.3     
  13 C13           -2.9286     1.2283     1.3207 C.3     
  14 C14           -2.0359     0.0799     1.7951 C.3     
  15 C15           -2.4893    -0.3790     3.1824 C.3     
  16 N16           -1.6345    -1.4787     3.6366 N.pl3   
  17 C17           -1.8533    -2.0575     4.8643 C.2     
  18 N18           -2.8213    -1.6278     5.6241 N.2     
  19 N19           -1.0511    -3.0894     5.2906 N.pl3   
  20 C20           -7.0556     3.1311    -0.7941 C.2     
  21 O21           -7.2585     2.1505    -0.1100 O.2     
  22 N22           -4.7315     2.4342    -0.7519 N.am    
  23 C23           -5.6575     3.4510    -1.2569 C.3     
  24 C24           -5.6168     3.4634    -2.7863 C.3     
  25 C25           -4.2307     3.9094    -3.2559 C.3     
  26 C26           -4.1498     3.8027    -4.7801 C.3     
  27 C27           -3.9912     5.3601    -2.8329 C.3     
  28 C28          -10.4358     4.2346    -1.6426 C.2     
  29 O29          -10.0486     4.8672    -2.6022 O.2     
  30 N30           -8.0805     3.9349    -1.1406 N.am    
  31 C31           -9.4396     3.6240    -0.6908 C.3     
  32 C32           -9.6564     4.1969     0.7112 C.3     
  33 C33           -8.7303     3.4874     1.7009 C.3     
  34 C34           -8.9471     4.0603     3.1029 C.3     
  35 N35           -8.0602     3.3809     4.0507 N.pl3   
  36 C36           -8.0779     3.7303     5.3802 C.2     
  37 N37           -8.8836     4.6660     5.7976 N.2     
  38 N38           -7.2456     3.0927     6.2696 N.pl3   
  39 C39          -14.0297     4.9030    -1.6343 C.2     
  40 O40          -14.1396     4.6018    -0.4646 O.2     
  41 N41          -11.7570     4.0777    -1.4275 N.am    
  42 C42          -12.7254     4.6713    -2.3527 C.3     
  43 C43          -12.9535     3.7219    -3.5306 C.3     
  44 C44          -11.6582     3.5847    -4.3333 C.3     
  45 C45          -11.8864     2.6353    -5.5112 C.3     
  46 C46          -10.5911     2.4981    -6.3140 C.3     
  47 N47          -10.8101     1.5865    -7.4449 N.3     
  48 C48          -17.4705     5.6817    -2.5921 C.2     
  49 O49          -17.2384     5.5182    -3.7712 O.2     
  50 N50          -15.0741     5.4447    -2.2917 N.am    
  51 C51          -16.3421     5.6699    -1.5933 C.3     
  52 C52          -16.2915     7.0146    -0.8651 C.3     
  53 C53          -15.2443     6.9606     0.2173 C.2     
  54 C54          -15.4484     6.6704     1.5119 C.2     
  55 N55          -14.2626     6.7174     2.1931 N.pl3   
  56 C56          -13.2406     7.0475     1.3316 C.ar    
  57 C57          -11.8709     7.2259     1.4944 C.ar    
  58 C58          -11.0908     7.5624     0.4096 C.ar    
  59 C59          -11.6579     7.7257    -0.8466 C.ar    
  60 C60          -13.0016     7.5558    -1.0291 C.ar    
  61 C61          -13.8097     7.2085     0.0549 C.ar    
  62 C62          -20.9847     6.6886    -2.5952 C.2     
  63 O63          -20.8967     7.2008    -1.4994 O.2     
  64 N64          -18.7376     5.8741    -2.1751 N.am    
  65 C65          -19.8346     5.8856    -3.1461 C.3     
  66 C66          -20.2953     4.4510    -3.4121 C.3     
  67 C67          -19.1660     3.6694    -4.0864 C.3     
  68 S68          -19.7122     1.9686    -4.4017 S.3     
  69 C69          -18.2632     1.2142    -5.1903 C.3     
  70 C70          -24.5144     7.1574    -3.4224 C.2     
  71 O71          -24.4981     6.2649    -4.2434 O.2     
  72 N72          -22.1110     6.8375    -3.3202 N.am    
  73 C73          -23.2291     7.6181    -2.7847 C.3     
  74 C74          -23.0097     9.1006    -3.0926 C.3     
  75 C75          -21.7909     9.5919    -2.3549 C.ar    
  76 C76          -20.5463     9.5215    -2.9523 C.ar    
  77 C77          -19.4283     9.9721    -2.2755 C.ar    
  78 C78          -19.5550    10.4936    -1.0016 C.ar    
  79 C79          -20.7998    10.5649    -0.4046 C.ar    
  80 C80          -21.9183    10.1183    -1.0830 C.ar    
  81 C81          -27.1263     8.0053    -5.0120 C.2     
  82 O82          -26.3056     8.8074    -5.3901 O.2     
  83 N83          -25.6820     7.7372    -3.0804 N.am    
  84 C84          -26.9315     7.2893    -3.7004 C.3     
  85 C85          -28.1041     7.6032    -2.7689 C.3     
  86 C86          -29.3923     7.0251    -3.3582 C.3     
  87 C87          -30.5419     7.2293    -2.3694 C.3     
  88 C88          -28.2463     9.1193    -2.6211 C.3     
  89 O89          -28.2116     7.7520    -5.7602 O.3     
  90 C90            3.5655     1.1381     0.4580 C.2     
  91 O91            3.8907     2.2212     0.8963 O.2     
  92 C92           20.7737    -4.8497     4.8411 C.3     
  93 C93           19.7770    -3.6889     4.8292 C.3     
  94 C94           18.4556    -4.1576     4.2166 C.3     
  95 C95           17.4589    -2.9969     4.2047 C.3     
  96 C96           16.1375    -3.4656     3.5922 C.3     
  97 C97           15.1408    -2.3048     3.5802 C.3     
  98 C98           13.8195    -2.7735     2.9677 C.3     
  99 C99           12.8228    -1.6127     2.9557 C.3     
 100 C100          11.5014    -2.0814     2.3432 C.3     
 101 C101          10.5047    -0.9206     2.3312 C.3     
 102 C102           9.1833    -1.3893     1.7187 C.3     
 103 C103           8.1866    -0.2286     1.7068 C.3     
 104 C104           6.8652    -0.6973     1.0942 C.3     
 105 C105           5.8686     0.4635     1.0823 C.3     
 106 C106           4.5472    -0.0052     0.4698 C.3     
 107 H107           2.0900     0.1147    -0.4587 H       
 108 H108           1.4517     2.5533     1.0027 H       
 109 H109           0.7741     3.7882    -1.0628 H       
 110 H110           2.5268     3.4833    -1.0047 H       
 111 H111           1.6283     2.4220    -4.3784 H       
 112 H112          -1.0110     3.2131     0.1237 H       
 113 H113          -2.4656     0.8350    -0.7461 H       
 114 H114          -2.8535     2.0601     2.0211 H       
 115 H115          -3.9628     0.8877     1.2707 H       
 116 H116          -2.1110    -0.7519     1.0947 H       
 117 H117          -1.0016     0.4205     1.8451 H       
 118 H118          -2.4142     0.4528     3.8828 H       
 119 H119          -3.5235    -0.7196     3.1324 H       
 120 H120          -0.9141    -1.7984     3.0711 H       
 121 H121          -2.9757    -2.0362     6.4903 H       
 122 H122          -0.3307    -3.4091     4.7251 H       
 123 H123          -1.2055    -3.4978     6.1568 H       
 124 H124          -5.0566     1.5460    -0.5370 H       
 125 H125          -5.3643     4.4299    -0.8776 H       
 126 H126          -5.8233     2.4617    -3.1634 H       
 127 H127          -6.3688     4.1561    -3.1641 H       
 128 H128          -3.4714     3.2697    -2.8061 H       
 129 H129          -4.9091     4.4424    -5.2299 H       
 130 H130          -3.1623     4.1205    -5.1147 H       
 131 H131          -4.3204     2.7692    -5.0815 H       
 132 H132          -4.0488     5.4362    -1.7470 H       
 133 H133          -3.0037     5.6779    -3.1675 H       
 134 H134          -4.7505     5.9998    -3.2827 H       
 135 H135          -7.9183     4.7192    -1.6878 H       
 136 H136          -9.5759     2.5428    -0.6665 H       
 137 H137          -9.4337     5.2639     0.7061 H       
 138 H138         -10.6934     4.0436     1.0100 H       
 139 H139          -8.9530     2.4204     1.7061 H       
 140 H140          -7.6933     3.6407     1.4021 H       
 141 H141          -8.7244     5.1273     3.0978 H       
 142 H142          -9.9840     3.9070     3.4018 H       
 143 H143          -7.4606     2.6846     3.7401 H       
 144 H144          -8.8961     4.9124     6.7357 H       
 145 H145          -6.6460     2.3963     5.9590 H       
 146 H146          -7.2581     3.3392     7.2077 H       
 147 H147         -12.0667     3.5717    -0.6600 H       
 148 H148         -12.3399     5.6218    -2.7216 H       
 149 H149         -13.2539     2.7435    -3.1557 H       
 150 H150         -13.7383     4.1216    -4.1727 H       
 151 H151         -11.3578     4.5631    -4.7082 H       
 152 H152         -10.8734     3.1850    -3.6912 H       
 153 H153         -12.1868     1.6568    -5.1363 H       
 154 H154         -12.6712     3.0350    -6.1534 H       
 155 H155         -10.2907     3.4765    -6.6889 H       
 156 H156          -9.8063     2.0984    -5.6718 H       
 157 H157         -11.5768     1.9017    -8.0202 H       
 158 H158          -9.9685     1.4792    -7.9911 H       
 159 H159         -14.9863     5.6856    -3.2272 H       
 160 H160         -16.5055     4.8710    -0.8701 H       
 161 H161         -16.0402     7.8028    -1.5748 H       
 162 H162         -17.2641     7.2233    -0.4196 H       
 163 H163         -16.4066     6.4350     1.9509 H       
 164 H164         -14.1577     6.5441     3.1418 H       
 165 H165         -11.4202     7.1014     2.4680 H       
 166 H166         -10.0275     7.7008     0.5381 H       
 167 H167         -11.0324     7.9896    -1.6865 H       
 168 H168         -13.4360     7.6849    -2.0094 H       
 169 H169         -18.9233     6.0049    -1.2321 H       
 170 H170         -19.4906     6.3353    -4.0775 H       
 171 H171         -20.5554     3.9721    -2.4681 H       
 172 H172         -21.1679     4.4649    -4.0651 H       
 173 H173         -18.9059     4.1484    -5.0303 H       
 174 H174         -18.2934     3.6556    -3.4334 H       
 175 H175         -18.0257     1.7546    -6.1066 H       
 176 H176         -17.4132     1.2619    -4.5097 H       
 177 H177         -18.4801     0.1729    -5.4284 H       
 178 H178         -22.1814     6.4278    -4.1966 H       
 179 H179         -23.2875     7.4759    -1.7056 H       
 180 H180         -22.8626     9.2312    -4.1647 H       
 181 H181         -23.8821     9.6710    -2.7734 H       
 182 H182         -20.4473     9.1140    -3.9475 H       
 183 H183         -18.4559     9.9164    -2.7420 H       
 184 H184         -18.6815    10.8450    -0.4726 H       
 185 H185         -20.8987    10.9720     0.5908 H       
 186 H186         -22.8913    10.1774    -0.6180 H       
 187 H187         -25.6950     8.4510    -2.4237 H       
 188 H188         -26.8850     6.2147    -3.8765 H       
 189 H189         -27.9204     7.1584    -1.7909 H       
 190 H190         -29.6237     7.5333    -4.2943 H       
 191 H191         -29.2598     5.9597    -3.5463 H       
 192 H192         -31.4597     6.8175    -2.7892 H       
 193 H193         -30.3106     6.7211    -1.4333 H       
 194 H194         -30.6745     8.2947    -2.1814 H       
 195 H195         -28.4301     9.5641    -3.5991 H       
 196 H196         -29.0817     9.3429    -1.9575 H       
 197 H197         -27.3286     9.5311    -2.2013 H       
 198 H198         -28.2929     8.2357    -6.5936 H       
 199 H199          21.7150    -4.5158     5.2775 H       
 200 H200          20.3690    -5.6699     5.4341 H       
 201 H201          20.9470    -5.1903     3.8203 H       
 202 H202          19.6037    -3.3483     5.8500 H       
 203 H203          20.1816    -2.8687     4.2362 H       
 204 H204          18.6289    -4.4982     3.1958 H       
 205 H205          18.0510    -4.9779     4.8096 H       
 206 H206          17.2856    -2.6563     5.2255 H       
 207 H207          17.8635    -2.1766     3.6117 H       
 208 H208          16.3108    -3.8062     2.5713 H       
 209 H209          15.7329    -4.2858     4.1851 H       
 210 H210          14.9675    -1.9642     4.6010 H       
 211 H211          15.5455    -1.4846     2.9872 H       
 212 H212          13.9928    -3.1141     1.9469 H       
 213 H213          13.4148    -3.5937     3.5606 H       
 214 H214          12.6495    -1.2721     3.9765 H       
 215 H215          13.2274    -0.7925     2.3628 H       
 216 H216          11.6747    -2.4220     1.3224 H       
 217 H217          11.0968    -2.9016     2.9361 H       
 218 H218          10.3314    -0.5800     3.3520 H       
 219 H219          10.9093    -0.1004     1.7383 H       
 220 H220           9.3566    -1.7299     0.6979 H       
 221 H221           8.7787    -2.2096     2.3117 H       
 222 H222           8.0133     0.1120     2.7276 H       
 223 H223           8.5913     0.5917     1.1138 H       
 224 H224           7.0386    -1.0379     0.0734 H       
 225 H225           6.4606    -1.5175     1.6872 H       
 226 H226           5.6952     0.8041     2.1031 H       
 227 H227           6.2732     1.2837     0.4893 H       
 228 H228           4.1425    -0.8254     1.0627 H       
 229 H229           4.7205    -0.3458    -0.5511 H       
@<TRIPOS>BOND
   1    1    2 2
   2    1    4 1
   3    1   11 am
   4    3   90 am
   5    3    4 1
   6    3  107 1
   7    4    5 1
   8    4  108 1
   9    5    6 1
  10    5  109 1
  11    5  110 1
  12    6    7 2
  13    6    8 1
  14    8  111 1
  15    9   10 2
  16    9   12 1
  17    9   22 am
  18   11   12 1
  19   11  112 1
  20   12   13 1
  21   12  113 1
  22   13   14 1
  23   13  114 1
  24   13  115 1
  25   14   15 1
  26   14  116 1
  27   14  117 1
  28   15   16 1
  29   15  118 1
  30   15  119 1
  31   16   17 1
  32   16  120 1
  33   17   18 2
  34   17   19 1
  35   18  121 1
  36   19  122 1
  37   19  123 1
  38   20   21 2
  39   20   23 1
  40   20   30 am
  41   22   23 1
  42   22  124 1
  43   23   24 1
  44   23  125 1
  45   24   25 1
  46   24  126 1
  47   24  127 1
  48   25   26 1
  49   25   27 1
  50   25  128 1
  51   26  129 1
  52   26  130 1
  53   26  131 1
  54   27  132 1
  55   27  133 1
  56   27  134 1
  57   28   29 2
  58   28   31 1
  59   28   41 am
  60   30   31 1
  61   30  135 1
  62   31   32 1
  63   31  136 1
  64   32   33 1
  65   32  137 1
  66   32  138 1
  67   33   34 1
  68   33  139 1
  69   33  140 1
  70   34   35 1
  71   34  141 1
  72   34  142 1
  73   35   36 1
  74   35  143 1
  75   36   37 2
  76   36   38 1
  77   37  144 1
  78   38  145 1
  79   38  146 1
  80   39   40 2
  81   39   42 1
  82   39   50 am
  83   41   42 1
  84   41  147 1
  85   42   43 1
  86   42  148 1
  87   43   44 1
  88   43  149 1
  89   43  150 1
  90   44   45 1
  91   44  151 1
  92   44  152 1
  93   45   46 1
  94   45  153 1
  95   45  154 1
  96   46   47 1
  97   46  155 1
  98   46  156 1
  99   47  157 1
 100   47  158 1
 101   48   49 2
 102   48   51 1
 103   48   64 am
 104   50   51 1
 105   50  159 1
 106   51   52 1
 107   51  160 1
 108   52   53 1
 109   52  161 1
 110   52  162 1
 111   53   54 2
 112   53   61 1
 113   54   55 1
 114   54  163 1
 115   55   56 1
 116   55  164 1
 117   56   57 ar
 118   56   61 ar
 119   57   58 ar
 120   57  165 1
 121   58   59 ar
 122   58  166 1
 123   59   60 ar
 124   59  167 1
 125   60   61 ar
 126   60  168 1
 127   62   63 2
 128   62   65 1
 129   62   72 am
 130   64   65 1
 131   64  169 1
 132   65   66 1
 133   65  170 1
 134   66   67 1
 135   66  171 1
 136   66  172 1
 137   67   68 1
 138   67  173 1
 139   67  174 1
 140   68   69 1
 141   69  175 1
 142   69  176 1
 143   69  177 1
 144   70   71 2
 145   70   73 1
 146   70   83 am
 147   72   73 1
 148   72  178 1
 149   73   74 1
 150   73  179 1
 151   74   75 1
 152   74  180 1
 153   74  181 1
 154   75   76 ar
 155   75   80 ar
 156   76   77 ar
 157   76  182 1
 158   77   78 ar
 159   77  183 1
 160   78   79 ar
 161   78  184 1
 162   79   80 ar
 163   79  185 1
 164   80  186 1
 165   81   82 2
 166   81   84 1
 167   81   89 1
 168   83   84 1
 169   83  187 1
 170   84   85 1
 171   84  188 1
 172   85   86 1
 173   85   88 1
 174   85  189 1
 175   86   87 1
 176   86  190 1
 177   86  191 1
 178   87  192 1
 179   87  193 1
 180   87  194 1
 181   88  195 1
 182   88  196 1
 183   88  197 1
 184   89  198 1
 185   90   91 2
 186   90  106 1
 187   92   93 1
 188   92  199 1
 189   92  200 1
 190   92  201 1
 191   93   94 1
 192   93  202 1
 193   93  203 1
 194   94   95 1
 195   94  204 1
 196   94  205 1
 197   95   96 1
 198   95  206 1
 199   95  207 1
 200   96   97 1
 201   96  208 1
 202   96  209 1
 203   97   98 1
 204   97  210 1
 205   97  211 1
 206   98   99 1
 207   98  212 1
 208   98  213 1
 209   99  100 1
 210   99  214 1
 211   99  215 1
 212  100  101 1
 213  100  216 1
 214  100  217 1
 215  101  102 1
 216  101  218 1
 217  101  219 1
 218  102  103 1
 219  102  220 1
 220  102  221 1
 221  103  104 1
 222  103  222 1
 223  103  223 1
 224  104  105 1
 225  104  224 1
 226  104  225 1
 227  105  106 1
 228  105  226 1
 229  105  227 1
 230  106  228 1
 231  106  229 1

#	End of record

