#	Name: ASD02440021
#	Creating user name:	WinNT
#	Creation time:	15. 06. 2019 20:21

#	Modifying user name:	WinNT
#	Modification time:	15. 06. 2019 20:21

#	Program:	/corina/corina34_cracker 3.40 0067  02.08.2006

@<TRIPOS>MOLECULE
ASD02440021
  94   99    0    0    0
SMALL
NO_CHARGES


@<TRIPOS>ATOM
   1 C1             1.4710     2.8657     0.3479 C.3     
   2 C2             0.6705     1.6827    -0.1867 C.3     
   3 C3             0.6877     0.5079     0.7975 C.3     
   4 C4             2.1015     0.1746     1.2216 C.3     
   5 C5             2.9384     1.3529     1.7056 C.3     
   6 C6             2.9126     2.4417     0.6160 C.3     
   7 C7             2.1690    -0.9566     2.2453 C.3     
   8 C8             3.6163    -1.4801     2.2421 C.3     
   9 C9             4.5815    -0.3812     2.6773 C.3     
  10 C10            4.3902     0.8949     1.8674 C.3     
  11 C11            6.0306    -0.8535     2.5427 C.3     
  12 C12            7.0076     0.2925     2.5885 C.2     
  13 C13            6.6669     1.5451     2.5622 C.2     
  14 C14            5.2384     2.0134     2.4776 C.3     
  15 C15            6.3771    -1.9170     3.5765 C.3     
  16 C16            7.8686    -2.2628     3.5641 C.3     
  17 C17            8.7102    -1.0068     3.8048 C.3     
  18 C18            8.4861    -0.0566     2.6276 C.3     
  19 C19           10.1886    -1.3822     3.8881 C.3     
  20 C20           11.0533    -0.1327     4.0270 C.3     
  21 C21           10.8190     0.8355     2.8697 C.3     
  22 C22            9.3356     1.1964     2.7694 C.3     
  23 C23           11.6189     2.1197     3.1343 C.3     
  24 C24           11.3057     0.2198     1.5589 C.3     
  25 C25            8.2840    -0.3596     5.0949 C.2     
  26 O26            7.8594     0.7715     5.0918 O.2     
  27 O27            8.3757    -1.0390     6.2489 O.3     
  28 C28            6.2029    -1.4951     1.1566 C.3     
  29 C29            4.3320    -0.0979     4.1692 C.3     
  30 C30            2.4072     1.9724     2.9925 C.3     
  31 C31           -0.2543     0.7791     1.9649 C.3     
  32 C32            0.1168    -0.7072     0.0248 C.3     
  33 O33           -0.6845     2.0863    -0.4065 O.3     
  34 C34            7.9466    -0.3522     7.4541 C.3     
  35 C35            8.1210    -1.2641     8.6411 C.ar    
  36 C36            9.3118    -1.2649     9.3431 C.ar    
  37 C37            7.0881    -2.0958     9.0314 C.ar    
  38 C38            7.2480    -2.9323    10.1202 C.ar    
  39 C39            8.4410    -2.9374    10.8185 C.ar    
  40 C40            9.4718    -2.1014    10.4319 C.ar    
  41 H41            1.4784     3.6560    -0.4167 H       
  42 H42            1.0060     3.2740     1.2384 H       
  43 H43            1.0995     1.3540    -1.1372 H       
  44 H44            2.6200    -0.2110     0.3088 H       
  45 H45            3.3544     2.0395    -0.2954 H       
  46 H46            3.4902     3.2993     0.9576 H       
  47 H47            1.8894    -0.6258     3.2347 H       
  48 H48            1.5169    -1.7807     1.9468 H       
  49 H49            3.6809    -2.3215     2.9340 H       
  50 H50            3.8144    -1.8281     1.2315 H       
  51 H51            4.7774     0.7135     0.8454 H       
  52 H52            7.4353     2.3027     2.6007 H       
  53 H53            5.2049     2.8883     1.8176 H       
  54 H54            4.9023     2.3077     3.4623 H       
  55 H55            6.0970    -1.6500     4.5877 H       
  56 H56            5.8211    -2.8361     3.3210 H       
  57 H57            8.0732    -2.9788     4.3664 H       
  58 H58            8.1483    -2.7124     2.6147 H       
  59 H59            8.7463    -0.5731     1.6975 H       
  60 H60           10.3393    -2.0198     4.7675 H       
  61 H61           10.4742    -1.9485     3.0031 H       
  62 H62           10.8495     0.3707     4.9716 H       
  63 H63           12.1096    -0.4303     4.0267 H       
  64 H64            9.1926     1.8276     1.8818 H       
  65 H65            9.0386     1.7713     3.6454 H       
  66 H66           12.6794     1.8787     3.2071 H       
  67 H67           11.4612     2.8213     2.3152 H       
  68 H68           11.2838     2.5705     4.0684 H       
  69 H69           10.7601    -0.7041     1.3668 H       
  70 H70           11.1328     0.9204     0.7420 H       
  71 H71           12.3715     0.0036     1.6327 H       
  72 H72            5.9766    -0.7593     0.3850 H       
  73 H73            7.2307    -1.8389     1.0406 H       
  74 H74            5.5235    -2.3422     1.0613 H       
  75 H75            4.5729    -0.9863     4.7530 H       
  76 H76            4.9621     0.7308     4.4920 H       
  77 H77            3.2842     0.1624     4.3193 H       
  78 H78            2.1781     1.1829     3.7082 H       
  79 H79            3.1613     2.6372     3.4140 H       
  80 H80            1.5024     2.5403     2.7759 H       
  81 H81           -1.2833     0.7939     1.6056 H       
  82 H82           -0.1417    -0.0059     2.7126 H       
  83 H83           -0.0114     1.7435     2.4112 H       
  84 H84            0.7430    -0.9125    -0.8434 H       
  85 H85            0.1040    -1.5798     0.6780 H       
  86 H86           -0.8983    -0.4845    -0.3038 H       
  87 H87           -0.7816     2.8081    -1.0426 H       
  88 H88            8.5484     0.5458     7.5943 H       
  89 H89            6.8967    -0.0749     7.3600 H       
  90 H90           10.1174    -0.6121     9.0406 H       
  91 H91            6.1560    -2.0917     8.4858 H       
  92 H92            6.4408    -3.5815    10.4256 H       
  93 H93            8.5659    -3.5907    11.6694 H       
  94 H94           10.4039    -2.1054    10.9774 H       
@<TRIPOS>BOND
   1    1    2 1
   2    1    6 1
   3    1   41 1
   4    1   42 1
   5    2    3 1
   6    2   33 1
   7    2   43 1
   8    3    4 1
   9    3   31 1
  10    3   32 1
  11    4    5 1
  12    4    7 1
  13    4   44 1
  14    5    6 1
  15    5   30 1
  16    5   10 1
  17    6   45 1
  18    6   46 1
  19    7    8 1
  20    7   47 1
  21    7   48 1
  22    8    9 1
  23    8   49 1
  24    8   50 1
  25    9   10 1
  26    9   11 1
  27    9   29 1
  28   10   14 1
  29   10   51 1
  30   11   12 1
  31   11   15 1
  32   11   28 1
  33   12   13 2
  34   12   18 1
  35   13   14 1
  36   13   52 1
  37   14   53 1
  38   14   54 1
  39   15   16 1
  40   15   55 1
  41   15   56 1
  42   16   17 1
  43   16   57 1
  44   16   58 1
  45   17   18 1
  46   17   19 1
  47   17   25 1
  48   18   22 1
  49   18   59 1
  50   19   20 1
  51   19   60 1
  52   19   61 1
  53   20   21 1
  54   20   62 1
  55   20   63 1
  56   21   22 1
  57   21   23 1
  58   21   24 1
  59   22   64 1
  60   22   65 1
  61   23   66 1
  62   23   67 1
  63   23   68 1
  64   24   69 1
  65   24   70 1
  66   24   71 1
  67   25   26 2
  68   25   27 1
  69   27   34 1
  70   28   72 1
  71   28   73 1
  72   28   74 1
  73   29   75 1
  74   29   76 1
  75   29   77 1
  76   30   78 1
  77   30   79 1
  78   30   80 1
  79   31   81 1
  80   31   82 1
  81   31   83 1
  82   32   84 1
  83   32   85 1
  84   32   86 1
  85   33   87 1
  86   34   35 1
  87   34   88 1
  88   34   89 1
  89   35   36 ar
  90   35   37 ar
  91   36   40 ar
  92   36   90 1
  93   37   38 ar
  94   37   91 1
  95   38   39 ar
  96   38   92 1
  97   39   40 ar
  98   39   93 1
  99   40   94 1

#	End of record

