#	Name: ASD01150316
#	Creating user name:	WinNT
#	Creation time:	15. 06. 2019 19:04

#	Modifying user name:	WinNT
#	Modification time:	15. 06. 2019 19:04

#	Program:	/corina/corina34_cracker 3.40 0067  02.08.2006

@<TRIPOS>MOLECULE
ASD01150316
  63   65    0    0    0
SMALL
NO_CHARGES


@<TRIPOS>ATOM
   1 N1            -0.0169     1.3924     0.0097 N.pl3   
   2 C2             0.0021    -0.0041     0.0020 C.2     
   3 C3            -1.3281    -0.4052     0.0126 C.2     
   4 N4            -2.0859     0.6949     0.0257 N.2     
   5 C5            -1.3234     1.7682     0.0301 C.2     
   6 C6             1.1392    -0.8369    -0.0137 C.2     
   7 C7             1.0965     2.2427     0.0036 C.ar    
   8 C8             1.3308     3.0744    -1.0833 C.ar    
   9 C9             2.4294     3.9115    -1.0863 C.ar    
  10 C10            3.2957     3.9215    -0.0086 C.ar    
  11 C11            3.0653     3.0941     1.0751 C.ar    
  12 C12            1.9649     2.2596     1.0870 C.ar    
  13 N13           -1.7776     3.0668     0.0439 N.3     
  14 C14           -3.2459     3.1108     0.0526 C.3     
  15 C15           -1.2220     3.8068     1.1847 C.3     
  16 O16            1.0072    -2.0475    -0.0189 O.2     
  17 O17            2.3749    -0.2924    -0.0230 O.3     
  18 C18            3.4819    -1.1959    -0.0388 C.3     
  19 C19            3.4086    -2.0704    -1.2921 C.3     
  20 C20            4.7891    -0.4008    -0.0475 C.3     
  21 C21            3.4333    -2.0838     1.2062 C.3     
  22 N22           -1.7881    -1.7165     0.0095 N.am    
  23 C23           -3.1125    -1.9661     0.0208 C.2     
  24 C24           -3.6028    -3.3637     0.0176 C.ar    
  25 O25           -3.9043    -1.0444     0.0337 O.2     
  26 O26            5.8961    -1.3043    -0.0633 O.3     
  27 C27            7.1717    -0.6604    -0.0725 C.3     
  28 C28           -2.7077    -4.4387     0.0028 C.ar    
  29 C29           -3.2052    -5.7280     0.0007 C.ar    
  30 N30           -4.5054    -5.9536     0.0120 N.ar    
  31 C31           -5.3867    -4.9679     0.0261 C.ar    
  32 C32           -4.9710    -3.6436     0.0350 C.ar    
  33 O33           -6.7129    -5.2545     0.0373 O.3     
  34 C34           -7.0782    -6.6360     0.0329 C.3     
  35 Cl35          -2.1041    -7.0700    -0.0176 Cl      
  36 H36            0.6549     3.0665    -1.9256 H       
  37 H37            2.6121     4.5586    -1.9314 H       
  38 H38            4.1542     4.5767    -0.0134 H       
  39 H39            3.7439     3.1040     1.9152 H       
  40 H40            1.7854     1.6136     1.9337 H       
  41 H41           -3.6195     2.6005     0.9403 H       
  42 H42           -3.5782     4.1489     0.0634 H       
  43 H43           -3.6296     2.6158    -0.8395 H       
  44 H44           -0.1342     3.8177     1.1157 H       
  45 H45           -1.5972     4.8301     1.1716 H       
  46 H46           -1.5222     3.3217     2.1135 H       
  47 H47            3.4432    -1.4378    -2.1791 H       
  48 H48            4.2530    -2.7596    -1.3042 H       
  49 H49            2.4773    -2.6368    -1.2859 H       
  50 H50            4.8237     0.2318    -0.9345 H       
  51 H51            4.8413     0.2222     0.8453 H       
  52 H52            2.5021    -2.6502     1.2124 H       
  53 H53            4.2777    -2.7730     1.1941 H       
  54 H54            3.4855    -1.4608     2.0991 H       
  55 H55           -1.1560    -2.4522    -0.0008 H       
  56 H56            7.2558    -0.0332    -0.9600 H       
  57 H57            7.2734    -0.0428     0.8198 H       
  58 H58            7.9591    -1.4141    -0.0843 H       
  59 H59           -1.6420    -4.2634    -0.0072 H       
  60 H60           -5.6946    -2.8419     0.0470 H       
  61 H61           -6.6829    -7.1135    -0.8637 H       
  62 H62           -6.6658    -7.1236     0.9162 H       
  63 H63           -8.1646    -6.7246     0.0429 H       
@<TRIPOS>BOND
   1    1    2 1
   2    1    7 1
   3    1    5 1
   4    2    3 2
   5    2    6 1
   6    3    4 1
   7    3   22 1
   8    4    5 2
   9    5   13 1
  10    6   16 2
  11    6   17 1
  12    7    8 ar
  13    7   12 ar
  14    8    9 ar
  15    8   36 1
  16    9   10 ar
  17    9   37 1
  18   10   11 ar
  19   10   38 1
  20   11   12 ar
  21   11   39 1
  22   12   40 1
  23   13   14 1
  24   13   15 1
  25   14   41 1
  26   14   42 1
  27   14   43 1
  28   15   44 1
  29   15   45 1
  30   15   46 1
  31   17   18 1
  32   18   19 1
  33   18   20 1
  34   18   21 1
  35   19   47 1
  36   19   48 1
  37   19   49 1
  38   20   26 1
  39   20   50 1
  40   20   51 1
  41   21   52 1
  42   21   53 1
  43   21   54 1
  44   22   23 am
  45   22   55 1
  46   23   24 1
  47   23   25 2
  48   24   28 ar
  49   24   32 ar
  50   26   27 1
  51   27   56 1
  52   27   57 1
  53   27   58 1
  54   28   29 ar
  55   28   59 1
  56   29   30 ar
  57   29   35 1
  58   30   31 ar
  59   31   32 ar
  60   31   33 1
  61   32   60 1
  62   33   34 1
  63   34   61 1
  64   34   62 1
  65   34   63 1

#	End of record

