#	Name: ASD05720048
#	Creating user name:	WinNT
#	Creation time:	15. 06. 2019 21:01

#	Modifying user name:	WinNT
#	Modification time:	15. 06. 2019 21:01

#	Program:	/corina/corina34_cracker 3.40 0067  02.08.2006

@<TRIPOS>MOLECULE
ASD05720048
  48   52    0    0    0
SMALL
NO_CHARGES


@<TRIPOS>ATOM
   1 O1             1.4801     1.7396     0.1877 O.3     
   2 C2             1.7528     0.5157    -0.2782 C.2     
   3 N3             1.2605    -0.4745     0.4785 N.am    
   4 C4             0.5492     0.1112     1.6251 C.3     
   5 C5             0.7053     1.6300     1.4168 C.3     
   6 O6             2.3883     0.3199    -1.2951 O.2     
   7 C7             1.2014    -0.3208     2.9399 C.3     
   8 C8             1.0379    -1.8316     3.1181 C.3     
   9 C9             1.5655    -2.2429     4.4941 C.3     
  10 C10            2.6176    -3.5821    -0.6639 C.2     
  11 N11            2.4689    -2.2786    -0.4085 N.2     
  12 C12            1.3989    -1.8323     0.2220 C.2     
  13 C13            0.3965    -2.7332     0.6356 C.2     
  14 C14            0.5440    -4.0528     0.3793 C.2     
  15 N15            1.6633    -4.4850    -0.2762 N.pl3   
  16 N16            2.0876    -5.7577    -0.6744 N.2     
  17 C17            3.2457    -5.6581    -1.2794 C.2     
  18 C18            3.6267    -4.3110    -1.3075 C.2     
  19 C19            4.8644    -3.7603    -1.9036 C.ar    
  20 C20            6.1077    -4.2747    -1.5314 C.ar    
  21 C21            7.2588    -3.7618    -2.0863 C.ar    
  22 C22            7.1828    -2.7285    -3.0202 C.ar    
  23 C23            5.9410    -2.2141    -3.3925 C.ar    
  24 C24            4.7888    -2.7299    -2.8426 C.ar    
  25 N25            9.8410    -1.0032    -4.7910 N.pl3   
  26 N26            8.4814    -1.2063    -4.5036 N.2     
  27 C27            8.4231    -2.1763    -3.6171 C.2     
  28 N28            9.6703    -2.5822    -3.3422 N.2     
  29 C29           10.5264    -1.8848    -4.0411 C.2     
  30 H30           -0.5034    -0.1714     1.6076 H       
  31 H31            1.2467     2.0764     2.2509 H       
  32 H32           -0.2701     2.1015     1.2969 H       
  33 H33            2.2619    -0.0701     2.9190 H       
  34 H34            0.7219     0.1970     3.7707 H       
  35 H35           -0.0170    -2.0946     3.0400 H       
  36 H36            1.6004    -2.3518     2.3429 H       
  37 H37            2.5948    -1.9021     4.6053 H       
  38 H38            0.9474    -1.7913     5.2701 H       
  39 H39            1.5301    -3.3283     4.5872 H       
  40 H40           -0.4807    -2.3729     1.1525 H       
  41 H41           -0.2137    -4.7574     0.6891 H       
  42 H42            3.8120    -6.4801    -1.6919 H       
  43 H43            6.1667    -5.0746    -0.8081 H       
  44 H44            8.2207    -4.1595    -1.7982 H       
  45 H45            5.8829    -1.4140    -4.1156 H       
  46 H46            3.8270    -2.3348    -3.1346 H       
  47 H47           10.2126    -0.3570    -5.4116 H       
  48 H48           11.6003    -1.9973    -4.0204 H       
@<TRIPOS>BOND
   1    1    2 1
   2    1    5 1
   3    2    3 am
   4    2    6 2
   5    3    4 1
   6    3   12 1
   7    4    5 1
   8    4    7 1
   9    4   30 1
  10    5   31 1
  11    5   32 1
  12    7    8 1
  13    7   33 1
  14    7   34 1
  15    8    9 1
  16    8   35 1
  17    8   36 1
  18    9   37 1
  19    9   38 1
  20    9   39 1
  21   10   11 1
  22   10   15 1
  23   10   18 2
  24   11   12 2
  25   12   13 1
  26   13   14 2
  27   13   40 1
  28   14   15 1
  29   14   41 1
  30   15   16 1
  31   16   17 2
  32   17   18 1
  33   17   42 1
  34   18   19 1
  35   19   20 ar
  36   19   24 ar
  37   20   21 ar
  38   20   43 1
  39   21   22 ar
  40   21   44 1
  41   22   23 ar
  42   22   27 1
  43   23   24 ar
  44   23   45 1
  45   24   46 1
  46   25   26 1
  47   25   29 1
  48   25   47 1
  49   26   27 2
  50   27   28 1
  51   28   29 2
  52   29   48 1

#	End of record

