#	Name: ASD08150430
#	Creating user name:	WinNT
#	Creation time:	15. 06. 2019 21:16

#	Modifying user name:	WinNT
#	Modification time:	15. 06. 2019 21:16

#	Program:	/corina/corina34_cracker 3.40 0067  02.08.2006

@<TRIPOS>MOLECULE
ASD08150430
  46   51    0    0    0
SMALL
NO_CHARGES


@<TRIPOS>ATOM
   1 N1             0.0000     1.3708     0.0634 N.am    
   2 C2             0.0760     0.1209     0.5602 C.2     
   3 C3             1.2952    -0.5867     0.5556 C.2     
   4 C4             2.4159    -0.0135     0.0475 C.2     
   5 C5             2.3396     1.3013    -0.4761 C.ar    
   6 C6             3.4720     1.9418    -1.0148 C.ar    
   7 N7             3.3989     3.1550    -1.4967 N.ar    
   8 C8             2.2544     3.8551    -1.5076 C.ar    
   9 C9             1.0649     3.2891    -0.9862 C.ar    
  10 C10            1.1104     1.9780    -0.4568 C.ar    
  11 C11           -0.1225     4.0271    -1.0013 C.ar    
  12 C12           -0.1224     5.3094    -1.5284 C.ar    
  13 C13            1.0595     5.8627    -2.0427 C.ar    
  14 C14            2.2214     5.1566    -2.0351 C.ar    
  15 O15           -0.9230    -0.4052     1.0203 O.2     
  16 C16           -1.3762     6.0985    -1.5490 C.2     
  17 C17           -1.2242     2.0507     0.0741 C.ar    
  18 C18           -2.0937     1.9338    -1.0020 C.ar    
  19 C19           -3.3014     2.6058    -0.9893 C.ar    
  20 C20           -3.6441     3.3955     0.0967 C.ar    
  21 C21           -2.7774     3.5132     1.1703 C.ar    
  22 C22           -1.5726     2.8384     1.1638 C.ar    
  23 Cl23          -4.3893     2.4609    -2.3344 Cl      
  24 C24           -2.4933     5.6615    -2.1271 C.2     
  25 F25           -4.8250     4.0518     0.1078 F       
  26 S26           -3.7895     6.8310    -1.9733 S.3     
  27 C27           -2.7680     7.9563    -1.0879 C.ar    
  28 C28           -1.4904     7.4175    -0.9313 C.ar    
  29 C29           -3.0570     9.2197    -0.5606 C.ar    
  30 C30           -2.0860     9.9303     0.1040 C.ar    
  31 C31           -0.8131     9.3978     0.2559 C.ar    
  32 C32           -0.5139     8.1674    -0.2445 C.ar    
  33 H33            1.3378    -1.5880     0.9580 H       
  34 H34            3.3523    -0.5516     0.0425 H       
  35 H35            4.4183     1.4216    -1.0299 H       
  36 H36           -1.0328     3.6014    -0.6058 H       
  37 H37            1.0463     6.8627    -2.4505 H       
  38 H38            3.1222     5.5981    -2.4352 H       
  39 H39           -1.8264     1.3186    -1.8485 H       
  40 H40           -3.0460     4.1297     2.0154 H       
  41 H41           -0.8972     2.9307     2.0015 H       
  42 H42           -2.5884     4.7088    -2.6268 H       
  43 H43           -4.0459     9.6380    -0.6764 H       
  44 H44           -2.3138    10.9054     0.5086 H       
  45 H45           -0.0554     9.9620     0.7793 H       
  46 H46            0.4805     7.7650    -0.1188 H       
@<TRIPOS>BOND
   1    1    2 am
   2    1   10 1
   3    1   17 1
   4    2    3 1
   5    2   15 2
   6    3    4 2
   7    3   33 1
   8    4    5 1
   9    4   34 1
  10    5    6 ar
  11    5   10 ar
  12    6    7 ar
  13    6   35 1
  14    7    8 ar
  15    8    9 ar
  16    8   14 ar
  17    9   10 ar
  18    9   11 ar
  19   11   12 ar
  20   11   36 1
  21   12   13 ar
  22   12   16 1
  23   13   14 ar
  24   13   37 1
  25   14   38 1
  26   16   24 2
  27   16   28 1
  28   17   18 ar
  29   17   22 ar
  30   18   19 ar
  31   18   39 1
  32   19   20 ar
  33   19   23 1
  34   20   21 ar
  35   20   25 1
  36   21   22 ar
  37   21   40 1
  38   22   41 1
  39   24   26 1
  40   24   42 1
  41   26   27 1
  42   27   28 ar
  43   27   29 ar
  44   28   32 ar
  45   29   30 ar
  46   29   43 1
  47   30   31 ar
  48   30   44 1
  49   31   32 ar
  50   31   45 1
  51   32   46 1

#	End of record

