#	Name: ASD04590390
#	Creating user name:	WinNT
#	Creation time:	15. 06. 2019 20:50

#	Modifying user name:	WinNT
#	Modification time:	15. 06. 2019 20:50

#	Program:	/corina/corina34_cracker 3.40 0067  02.08.2006

@<TRIPOS>MOLECULE
ASD04590390
  45   48    0    0    0
SMALL
NO_CHARGES


@<TRIPOS>ATOM
   1 C1            -0.0167     1.3832     0.0096 C.ar    
   2 C2             0.0021    -0.0041     0.0020 C.ar    
   3 C3            -2.3977    -0.0431     0.0243 C.ar    
   4 C4            -2.4105     1.3630     0.0440 C.ar    
   5 C5            -1.2148     2.0662     0.0305 C.ar    
   6 N6            -3.6888    -0.4559     0.0436 N.2     
   7 C7            -4.4840     0.5860     0.0735 C.2     
   8 N8            -3.7410     1.7360     0.0750 N.pl3   
   9 C9            -5.9602     0.5280     0.1009 C.2     
  10 C10           -6.7461    -0.6476     0.0999 C.2     
  11 C11           -8.0487    -0.2738     0.1304 C.2     
  12 N12           -8.0921     1.0843     0.1501 N.pl3   
  13 N13           -6.7761     1.5633     0.1364 N.2     
  14 N14           -6.2636    -1.9659     0.0719 N.am    
  15 C15           -7.1278    -3.0000     0.0744 C.2     
  16 O16           -8.3253    -2.7914     0.1010 O.2     
  17 C17           -6.6199    -4.3879     0.0449 C.ar    
  18 C18           -1.1738    -0.7192     0.0089 C.ar    
  19 C19           -7.0316    -6.7540     0.0197 C.ar    
  20 C20           -5.6682    -6.9879    -0.0105 C.ar    
  21 C21           -4.7781    -5.9286    -0.0074 C.ar    
  22 C22           -5.2455    -4.6310     0.0201 C.ar    
  23 C23           -7.5123    -5.4612     0.0474 C.ar    
  24 C24            1.3206    -0.7336    -0.0145 C.3     
  25 C25            1.2811     2.1491     0.0014 C.3     
  26 C26           -5.1503    -8.4028    -0.0407 C.3     
  27 H27           -1.2220     3.1462     0.0366 H       
  28 H28           -4.0842     2.6430     0.0945 H       
  29 H29           -8.9007    -0.9375     0.1375 H       
  30 H30           -8.8952     1.6277     0.1729 H       
  31 H31           -5.3082    -2.1323     0.0507 H       
  32 H32           -1.1513    -1.7990     0.0022 H       
  33 H33           -7.7211    -7.5853     0.0168 H       
  34 H34           -3.7151    -6.1180    -0.0311 H       
  35 H35           -4.5497    -3.8050     0.0221 H       
  36 H36           -8.5767    -5.2800     0.0714 H       
  37 H37            1.6483    -0.9151     1.0091 H       
  38 H38            1.2027    -1.6855    -0.5323 H       
  39 H39            2.0645    -0.1281    -0.5322 H       
  40 H40            1.5842     2.3393    -1.0282 H       
  41 H41            1.1467     3.0974     0.5216 H       
  42 H42            2.0512     1.5645     0.5047 H       
  43 H43           -5.0458    -8.7295    -1.0753 H       
  44 H44           -4.1797    -8.4451     0.4536 H       
  45 H45           -5.8509    -9.0573     0.4780 H       
@<TRIPOS>BOND
   1    1    2 ar
   2    1   25 1
   3    1    5 ar
   4    2   18 ar
   5    2   24 1
   6    3    4 ar
   7    3    6 1
   8    3   18 ar
   9    4    5 ar
  10    4    8 1
  11    5   27 1
  12    6    7 2
  13    7    8 1
  14    7    9 1
  15    8   28 1
  16    9   10 1
  17    9   13 2
  18   10   11 2
  19   10   14 1
  20   11   12 1
  21   11   29 1
  22   12   13 1
  23   12   30 1
  24   14   15 am
  25   14   31 1
  26   15   16 2
  27   15   17 1
  28   17   23 ar
  29   17   22 ar
  30   18   32 1
  31   19   20 ar
  32   19   23 ar
  33   19   33 1
  34   20   21 ar
  35   20   26 1
  36   21   22 ar
  37   21   34 1
  38   22   35 1
  39   23   36 1
  40   24   37 1
  41   24   38 1
  42   24   39 1
  43   25   40 1
  44   25   41 1
  45   25   42 1
  46   26   43 1
  47   26   44 1
  48   26   45 1

#	End of record

