#	Name: ASD01810910
#	Creating user name:	WinNT
#	Creation time:	15. 06. 2019 19:25

#	Modifying user name:	WinNT
#	Modification time:	15. 06. 2019 19:25

#	Program:	/corina/corina34_cracker 3.40 0067  02.08.2006

@<TRIPOS>MOLECULE
ASD01810910
  68   72    0    0    0
SMALL
NO_CHARGES


@<TRIPOS>ATOM
   1 C1            -5.8393     1.0843    -3.6374 C.1     
   2 C2            -5.1682     2.1940    -3.0301 C.ar    
   3 C3            -3.8633     2.0496    -2.5545 C.ar    
   4 C4            -3.2228     3.1228    -1.9705 C.ar    
   5 C5            -3.8706     4.3400    -1.8552 C.ar    
   6 C6            -5.1637     4.4899    -2.3239 C.ar    
   7 C7            -5.8136     3.4269    -2.9161 C.ar    
   8 N8            -6.3716     0.2039    -4.1191 N.1     
   9 N9            -2.9856     8.1853    -0.3220 N.am    
  10 C10           -2.3156     7.8285    -1.5800 C.3     
  11 C11           -3.0642     6.6563    -2.2220 C.3     
  12 C12           -3.1645     5.5077    -1.2156 C.3     
  13 C13           -3.9530     5.9701     0.0118 C.3     
  14 C14           -3.2145     7.1346     0.6792 C.3     
  15 C15           -2.3324     9.0290    -2.5284 C.3     
  16 C16           -3.3777     9.4535    -0.0885 C.2     
  17 C17           -4.1543     9.7751     1.1280 C.ar    
  18 C18           -5.4062    10.3848     1.0184 C.ar    
  19 C19           -6.1323    10.6855     2.1533 C.ar    
  20 C20           -5.6270    10.3863     3.4034 C.ar    
  21 C21           -4.3773     9.7766     3.5269 C.ar    
  22 C22           -3.6416     9.4655     2.3859 C.ar    
  23 O23           -3.0929    10.3328    -0.8779 O.2     
  24 C24           -5.9652    10.7153    -0.3415 C.3     
  25 N25           -3.6241     9.3606     6.9801 N.2     
  26 N26           -4.3553     9.8091     6.0228 N.2     
  27 C27           -3.8375     9.4573     4.8670 C.2     
  28 N28           -2.7043     8.7396     5.1385 N.pl3   
  29 C29           -2.6057     8.7020     6.4952 C.2     
  30 C30           -1.5208     8.0244     7.2920 C.3     
  31 C31           -0.8817     9.0353     8.2461 C.3     
  32 C32           -6.4263    10.7192     4.6368 C.3     
  33 C33           -6.5900    12.2295     4.8757 C.3     
  34 C34           -8.0372    11.9261     5.2981 C.3     
  35 C35           -7.9475    10.6688     4.4172 C.3     
  36 H36           -3.3568     1.0999    -2.6433 H       
  37 H37           -2.2136     3.0126    -1.6022 H       
  38 H38           -5.6636     5.4427    -2.2304 H       
  39 H39           -6.8213     3.5466    -3.2859 H       
  40 H40           -1.2857     7.5363    -1.3754 H       
  41 H41           -4.0656     6.9773    -2.5087 H       
  42 H42           -2.5228     6.3192    -3.1060 H       
  43 H43           -2.1632     5.2038    -0.9105 H       
  44 H44           -4.9461     6.2976    -0.2959 H       
  45 H45           -4.0441     5.1447     0.7178 H       
  46 H46           -2.2578     6.7858     1.0680 H       
  47 H47           -3.8195     7.5320     1.4941 H       
  48 H48           -1.6866     9.8132    -2.1334 H       
  49 H49           -1.9719     8.7215    -3.5101 H       
  50 H50           -3.3507     9.4075    -2.6175 H       
  51 H51           -7.0997    11.1573     2.0633 H       
  52 H52           -2.6759     8.9903     2.4760 H       
  53 H53           -6.5897     9.8918    -0.6876 H       
  54 H54           -6.5644    11.6236    -0.2770 H       
  55 H55           -5.1457    10.8698    -1.0434 H       
  56 H56           -2.0968     8.3401     4.4964 H       
  57 H57           -1.9507     7.2039     7.8667 H       
  58 H58           -0.7617     7.6344     6.6140 H       
  59 H59           -0.0970     8.5452     8.8224 H       
  60 H60           -0.4518     9.8558     7.6714 H       
  61 H61           -1.6408     9.4253     8.9241 H       
  62 H62           -6.0926    10.1714     5.5180 H       
  63 H63           -5.9700    12.6132     5.6859 H       
  64 H64           -6.5166    12.8259     3.9663 H       
  65 H65           -8.1453    11.7080     6.3606 H       
  66 H66           -8.7596    12.6596     4.9399 H       
  67 H67           -8.2452    10.8385     3.3825 H       
  68 H68           -8.4234     9.7924     4.8573 H       
@<TRIPOS>BOND
   1    1    2 1
   2    1    8 3
   3    2    3 ar
   4    2    7 ar
   5    3    4 ar
   6    3   36 1
   7    4    5 ar
   8    4   37 1
   9    5    6 ar
  10    5   12 1
  11    6    7 ar
  12    6   38 1
  13    7   39 1
  14    9   10 1
  15    9   14 1
  16    9   16 am
  17   10   11 1
  18   10   15 1
  19   10   40 1
  20   11   12 1
  21   11   41 1
  22   11   42 1
  23   12   13 1
  24   12   43 1
  25   13   14 1
  26   13   44 1
  27   13   45 1
  28   14   46 1
  29   14   47 1
  30   15   48 1
  31   15   49 1
  32   15   50 1
  33   16   17 1
  34   16   23 2
  35   17   18 ar
  36   17   22 ar
  37   18   19 ar
  38   18   24 1
  39   19   20 ar
  40   19   51 1
  41   20   21 ar
  42   20   32 1
  43   21   22 ar
  44   21   27 1
  45   22   52 1
  46   24   53 1
  47   24   54 1
  48   24   55 1
  49   25   26 1
  50   25   29 2
  51   26   27 2
  52   27   28 1
  53   28   29 1
  54   28   56 1
  55   29   30 1
  56   30   31 1
  57   30   57 1
  58   30   58 1
  59   31   59 1
  60   31   60 1
  61   31   61 1
  62   32   33 1
  63   32   35 1
  64   32   62 1
  65   33   34 1
  66   33   63 1
  67   33   64 1
  68   34   35 1
  69   34   65 1
  70   34   66 1
  71   35   67 1
  72   35   68 1

#	End of record

