#	Name: ASD03092091
#	Creating user name:	WinNT
#	Creation time:	15. 06. 2019 20:31

#	Modifying user name:	WinNT
#	Modification time:	15. 06. 2019 20:31

#	Program:	/corina/corina34_cracker 3.40 0067  02.08.2006

@<TRIPOS>MOLECULE
ASD03092091
  52   54    0    0    0
SMALL
NO_CHARGES


@<TRIPOS>ATOM
   1 N1             0.1813     1.8398     1.2675 N.pl3   
   2 C2             0.0957     0.4885     1.1078 C.2     
   3 C3            -1.2084     0.1910     0.8313 C.2     
   4 C4            -1.9291     1.3918     0.8237 C.2     
   5 N5            -1.1006     2.3752     1.0895 N.2     
   6 N6            -3.3018     1.5211     0.5793 N.pl3   
   7 C7            -3.8777     2.7903     0.4841 C.ar    
   8 C8            -3.1322     3.8581     0.0020 C.ar    
   9 C9            -3.7059     5.1135    -0.0908 C.ar    
  10 C10           -5.0217     5.3046     0.2969 C.ar    
  11 C11           -5.1995     2.9854     0.8662 C.ar    
  12 C12            1.2106    -0.4780     1.2139 C.ar    
  13 C13            1.3970     2.5966     1.5766 C.3     
  14 C14            2.0102    -0.5301     2.3610 C.ar    
  15 C15            3.0394    -1.4469     2.4176 C.ar    
  16 N16            3.2733    -2.2660     1.4101 N.ar    
  17 C17            2.5435    -2.2499     0.3107 C.ar    
  18 C18            1.4912    -1.3695     0.1720 C.ar    
  19 C19            2.8605    -3.2110    -0.8059 C.3     
  20 C20           -5.7650     4.2420     0.7771 C.ar    
  21 F21           -2.9823     6.1536    -0.5595 F       
  22 C22            0.6635    -1.3592    -1.0873 C.3     
  23 C23            2.1215     2.9277     0.2974 C.2     
  24 N24            3.2744     3.6247     0.3369 N.am    
  25 O25            1.6671     2.5671    -0.7677 O.2     
  26 C26            3.9787     3.9466    -0.9067 C.3     
  27 C27            3.8233     4.0603     1.6234 C.3     
  28 C28           -7.1964     4.4544     1.1979 C.3     
  29 F29           -7.5429     5.7970     1.0117 F       
  30 F30           -8.0350     3.6448     0.4242 F       
  31 F31           -7.3402     4.1186     2.5483 F       
  32 H32           -1.6118    -0.7945     0.6508 H       
  33 H33           -3.8528     0.7295     0.4762 H       
  34 H34           -2.1060     3.7089    -0.2995 H       
  35 H35           -5.4680     6.2854     0.2245 H       
  36 H36           -5.7828     2.1555     1.2369 H       
  37 H37            1.1295     3.5191     2.0920 H       
  38 H38            2.0450     1.9976     2.2166 H       
  39 H39            1.8247     0.1376     3.1894 H       
  40 H40            3.6623    -1.4946     3.2986 H       
  41 H41            2.2986    -4.1338    -0.6616 H       
  42 H42            2.5843    -2.7629    -1.7604 H       
  43 H43            3.9280    -3.4315    -0.8035 H       
  44 H44           -0.1524    -2.0757    -0.9917 H       
  45 H45            0.2541    -0.3614    -1.2448 H       
  46 H46            1.2900    -1.6331    -1.9361 H       
  47 H47            3.6248     4.9049    -1.2871 H       
  48 H48            5.0497     4.0058    -0.7129 H       
  49 H49            3.7856     3.1688    -1.6455 H       
  50 H50            3.1666     3.7312     2.4287 H       
  51 H51            4.8135     3.6262     1.7616 H       
  52 H52            3.8981     5.1477     1.6370 H       
@<TRIPOS>BOND
   1    1    2 1
   2    1   13 1
   3    1    5 1
   4    2    3 2
   5    2   12 1
   6    3    4 1
   7    3   32 1
   8    4    5 2
   9    4    6 1
  10    6    7 1
  11    6   33 1
  12    7    8 ar
  13    7   11 ar
  14    8    9 ar
  15    8   34 1
  16    9   10 ar
  17    9   21 1
  18   10   20 ar
  19   10   35 1
  20   11   20 ar
  21   11   36 1
  22   12   14 ar
  23   12   18 ar
  24   13   23 1
  25   13   37 1
  26   13   38 1
  27   14   15 ar
  28   14   39 1
  29   15   16 ar
  30   15   40 1
  31   16   17 ar
  32   17   18 ar
  33   17   19 1
  34   18   22 1
  35   19   41 1
  36   19   42 1
  37   19   43 1
  38   20   28 1
  39   22   44 1
  40   22   45 1
  41   22   46 1
  42   23   24 am
  43   23   25 2
  44   24   26 1
  45   24   27 1
  46   26   47 1
  47   26   48 1
  48   26   49 1
  49   27   50 1
  50   27   51 1
  51   27   52 1
  52   28   29 1
  53   28   30 1
  54   28   31 1

#	End of record

