#	Name: ASD07301765
#	Creating user name:	WinNT
#	Creation time:	15. 06. 2019 21:11

#	Modifying user name:	WinNT
#	Modification time:	15. 06. 2019 21:11

#	Program:	/corina/corina34_cracker 3.40 0067  02.08.2006

@<TRIPOS>MOLECULE
ASD07301765
  39   41    0    0    0
SMALL
NO_CHARGES


@<TRIPOS>ATOM
   1 C1            -0.1755     1.3929    -0.5816 C.ar    
   2 C2            -0.1490    -0.0045    -0.5723 C.ar    
   3 C3             0.9122    -0.6610    -1.1808 C.ar    
   4 C4             1.9081     0.1021    -1.7762 C.ar    
   5 C5             1.8155     1.4785    -1.7465 C.ar    
   6 N6             0.7954     2.0790    -1.1611 N.ar    
   7 N7            -1.2356     2.0681     0.0191 N.pl3   
   8 N8            -1.1763    -0.7308     0.0413 N.pl3   
   9 C9            -1.2095     3.4639     0.1192 C.ar    
  10 C10           -2.3893     4.1899     0.0195 C.ar    
  11 C11           -2.3625     5.5671     0.1184 C.ar    
  12 C12           -1.1577     6.2253     0.3167 C.ar    
  13 C13            0.0211     5.5010     0.4164 C.ar    
  14 C14           -0.0045     4.1234     0.3240 C.ar    
  15 O15           -1.1322     7.5816     0.4131 O.3     
  16 C16            0.1429     8.1936     0.6172 C.3     
  17 C17           -0.0250     9.6890     0.6985 C.ar    
  18 C18           -0.2526    10.2935     1.9206 C.ar    
  19 C19           -0.4066    11.6653     1.9952 C.ar    
  20 C20           -0.3325    12.4325     0.8477 C.ar    
  21 C21           -0.1039    11.8280    -0.3743 C.ar    
  22 C22            0.0543    10.4568    -0.4483 C.ar    
  23 H23            0.9623    -1.7398    -1.1905 H       
  24 H24            2.7476    -0.3774    -2.2578 H       
  25 H25            2.5892     2.0737    -2.2086 H       
  26 H26           -1.9919     1.5709     0.3680 H       
  27 H27           -1.9141    -0.2644     0.4645 H       
  28 H28           -1.1504    -1.7004     0.0433 H       
  29 H29           -3.3273     3.6776    -0.1356 H       
  30 H30           -3.2798     6.1318     0.0408 H       
  31 H31            0.9587     6.0144     0.5709 H       
  32 H32            0.9128     3.5593     0.4064 H       
  33 H33            0.5778     7.8257     1.5465 H       
  34 H34            0.8018     7.9466    -0.2152 H       
  35 H35           -0.3105     9.6941     2.8171 H       
  36 H36           -0.5851    12.1375     2.9499 H       
  37 H37           -0.4535    13.5041     0.9058 H       
  38 H38           -0.0464    12.4274    -1.2709 H       
  39 H39            0.2366     9.9849    -1.4025 H       
@<TRIPOS>BOND
   1    1    2 ar
   2    1    6 ar
   3    1    7 1
   4    2    3 ar
   5    2    8 1
   6    3    4 ar
   7    3   23 1
   8    4    5 ar
   9    4   24 1
  10    5    6 ar
  11    5   25 1
  12    7    9 1
  13    7   26 1
  14    8   27 1
  15    8   28 1
  16    9   10 ar
  17    9   14 ar
  18   10   11 ar
  19   10   29 1
  20   11   12 ar
  21   11   30 1
  22   12   13 ar
  23   12   15 1
  24   13   14 ar
  25   13   31 1
  26   14   32 1
  27   15   16 1
  28   16   17 1
  29   16   33 1
  30   16   34 1
  31   17   18 ar
  32   17   22 ar
  33   18   19 ar
  34   18   35 1
  35   19   20 ar
  36   19   36 1
  37   20   21 ar
  38   20   37 1
  39   21   22 ar
  40   21   38 1
  41   22   39 1

#	End of record

