#	Name: ASD01411094
#	Creating user name:	WinNT
#	Creation time:	15. 06. 2019 19:19

#	Modifying user name:	WinNT
#	Modification time:	15. 06. 2019 19:19

#	Program:	/corina/corina34_cracker 3.40 0067  02.08.2006

@<TRIPOS>MOLECULE
ASD01411094
  40   42    0    0    0
SMALL
NO_CHARGES


@<TRIPOS>ATOM
   1 C1             0.2387     0.9453     0.2128 C.2     
   2 C2             0.4478    -0.4834     0.2680 C.ar    
   3 C3             1.4601     1.5274     0.1783 C.2     
   4 C4            -1.0492     1.7297     0.1989 C.3     
   5 C5             1.8545    -0.6719     0.2629 C.ar    
   6 C6            -0.4291    -1.5729     0.3189 C.ar    
   7 C7             1.6482     3.0249     0.1149 C.3     
   8 N8             2.4317     0.5659     0.2088 N.pl3   
   9 C9            -0.7144     3.1912     0.5301 C.3     
  10 C10            2.4012    -1.9532     0.3084 C.ar    
  11 C11            0.1417    -2.8329     0.3634 C.ar    
  12 Cl12          -2.1512    -1.3543     0.3265 Cl      
  13 O13            0.3985     3.6171    -0.2612 O.3     
  14 C14            2.0761     3.5501     1.4867 C.3     
  15 C15            2.7167     3.3675    -0.9253 C.3     
  16 C16            1.5145    -3.0161     0.3580 C.ar    
  17 Cl17           4.1187    -2.2059     0.3023 Cl      
  18 C18            2.2805     2.8655    -2.2776 C.2     
  19 H19            3.3865     0.7364     0.1939 H       
  20 O20            1.1790     2.3893    -2.4188 O.2     
  21 O21            3.1157     2.9473    -3.3252 O.3     
  22 H22            2.7913     2.6123    -4.1724 H       
  23 C23            2.6186     5.5649     2.6663 C.3     
  24 O24            2.2193     4.9707     1.4295 O.3     
  25 C25            2.7398     7.0797     2.4886 C.3     
  26 H26           -1.5065     1.6707    -0.7888 H       
  27 H27           -1.7331     1.3293     0.9473 H       
  28 H28           -1.5778     3.8201     0.3129 H       
  29 H29           -0.4601     3.2754     1.5866 H       
  30 H30           -0.5024    -3.6989     0.4037 H       
  31 H31            1.3196     3.2906     2.2273 H       
  32 H32            3.0284     3.0999     1.7672 H       
  33 H33            2.8516     4.4484    -0.9651 H       
  34 H34            3.6585     2.8938    -0.6483 H       
  35 H35            1.9069    -4.0216     0.3940 H       
  36 H36            1.8732     5.3473     3.4313 H       
  37 H37            3.5821     5.1566     2.9712 H       
  38 H38            3.0443     7.5330     3.4320 H       
  39 H39            3.4851     7.2974     1.7236 H       
  40 H40            1.7762     7.4880     2.1837 H       
@<TRIPOS>BOND
   1    1    2 1
   2    1    3 2
   3    1    4 1
   4    2    5 ar
   5    2    6 ar
   6    3    7 1
   7    3    8 1
   8    4    9 1
   9    4   26 1
  10    4   27 1
  11    5   10 ar
  12    5    8 1
  13    6   11 ar
  14    6   12 1
  15    7   14 1
  16    7   15 1
  17    7   13 1
  18    8   19 1
  19    9   13 1
  20    9   28 1
  21    9   29 1
  22   10   16 ar
  23   10   17 1
  24   11   16 ar
  25   11   30 1
  26   14   24 1
  27   14   31 1
  28   14   32 1
  29   15   18 1
  30   15   33 1
  31   15   34 1
  32   16   35 1
  33   18   20 2
  34   18   21 1
  35   21   22 1
  36   23   24 1
  37   23   25 1
  38   23   36 1
  39   23   37 1
  40   25   38 1
  41   25   39 1
  42   25   40 1

#	End of record

