#	Name: ASD01882841
#	Creating user name:	WinNT
#	Creation time:	15. 06. 2019 19:45

#	Modifying user name:	WinNT
#	Modification time:	15. 06. 2019 19:45

#	Program:	/corina/corina34_cracker 3.40 0067  02.08.2006

@<TRIPOS>MOLECULE
ASD01882841
  55   57    0    0    0
SMALL
NO_CHARGES


@<TRIPOS>ATOM
   1 C1             1.5939     4.3102    -2.1766 C.ar    
   2 C2             2.4149     4.3840    -3.2904 C.ar    
   3 C3             3.6063     3.6834    -3.2982 C.ar    
   4 N4             3.9673     2.9499    -2.2634 N.ar    
   5 C5             3.2156     2.8530    -1.1851 C.ar    
   6 C6             2.0056     3.5275    -1.1025 C.ar    
   7 C7             4.5048     3.7584    -4.5058 C.3     
   8 C8             3.6747     2.0009    -0.0300 C.3     
   9 O9             1.2338     3.4247     0.0112 O.3     
  10 C10            0.0970     4.1678     0.0707 C.ar    
  11 C11           -1.0830     3.6801    -0.4780 C.ar    
  12 C12            0.1113     5.4112     0.6840 C.ar    
  13 C13           -1.0458     6.1648     0.7437 C.ar    
  14 C14           -2.2175     5.6807     0.1929 C.ar    
  15 C15           -2.2376     4.4387    -0.4152 C.ar    
  16 C16           -3.4770     6.5055     0.2602 C.3     
  17 C17           -3.6157     7.1231     1.6569 C.3     
  18 C18           -4.9825     7.8013     1.7588 C.3     
  19 N19           -5.1960     8.6917     0.6248 N.am    
  20 C20           -4.5159     8.6207    -0.5201 C.2     
  21 C21           -3.4057     7.6396    -0.7654 C.3     
  22 C22           -2.1097     8.3270    -0.6449 C.1     
  23 O23           -4.8097     9.3896    -1.4108 O.2     
  24 C24           -6.2225     9.7294     0.7504 C.3     
  25 C25           -5.5943    11.0013     1.3236 C.3     
  26 C26           -6.6663    12.0851     1.4548 C.3     
  27 C27           -6.0382    13.3570     2.0280 C.3     
  28 F28           -1.1021     2.4670    -1.0723 F       
  29 N29           -1.1094     8.8575    -0.5519 N.1     
  30 H30            0.6595     4.8506    -2.1413 H       
  31 H31            2.1270     4.9816    -4.1427 H       
  32 H32            5.2016     4.5885    -4.3892 H       
  33 H33            5.0624     2.8268    -4.6021 H       
  34 H34            3.9003     3.9141    -5.3993 H       
  35 H35            4.2658     2.6073     0.6564 H       
  36 H36            2.8067     1.6009     0.4940 H       
  37 H37            4.2838     1.1784    -0.4048 H       
  38 H38            1.0259     5.7905     1.1151 H       
  39 H39           -1.0345     7.1331     1.2218 H       
  40 H40           -3.1554     4.0610    -0.8411 H       
  41 H41           -4.3406     5.8743     0.0506 H       
  42 H42           -3.5384     6.3408     2.4120 H       
  43 H43           -2.8287     7.8615     1.8100 H       
  44 H44           -5.7625     7.0400     1.7710 H       
  45 H45           -5.0309     8.3771     2.6831 H       
  46 H46           -3.5031     7.2265    -1.7694 H       
  47 H47           -6.6448     9.9434    -0.2314 H       
  48 H48           -7.0113     9.3814     1.4173 H       
  49 H49           -5.1720    10.7873     2.3054 H       
  50 H50           -4.8055    11.3494     0.6568 H       
  51 H51           -7.0887    12.2991     0.4730 H       
  52 H52           -7.4552    11.7370     2.1217 H       
  53 H53           -6.8019    14.1291     2.1215 H       
  54 H54           -5.6158    13.1430     3.0098 H       
  55 H55           -5.2494    13.7050     1.3611 H       
@<TRIPOS>BOND
   1    1    2 ar
   2    1    6 ar
   3    1   30 1
   4    2    3 ar
   5    2   31 1
   6    3    4 ar
   7    3    7 1
   8    4    5 ar
   9    5    6 ar
  10    5    8 1
  11    6    9 1
  12    7   32 1
  13    7   33 1
  14    7   34 1
  15    8   35 1
  16    8   36 1
  17    8   37 1
  18    9   10 1
  19   10   12 ar
  20   10   11 ar
  21   11   15 ar
  22   11   28 1
  23   12   13 ar
  24   12   38 1
  25   13   14 ar
  26   13   39 1
  27   14   15 ar
  28   14   16 1
  29   15   40 1
  30   16   17 1
  31   16   21 1
  32   16   41 1
  33   17   18 1
  34   17   42 1
  35   17   43 1
  36   18   19 1
  37   18   44 1
  38   18   45 1
  39   19   20 am
  40   19   24 1
  41   20   21 1
  42   20   23 2
  43   21   22 1
  44   21   46 1
  45   22   29 3
  46   24   25 1
  47   24   47 1
  48   24   48 1
  49   25   26 1
  50   25   49 1
  51   25   50 1
  52   26   27 1
  53   26   51 1
  54   26   52 1
  55   27   53 1
  56   27   54 1
  57   27   55 1

#	End of record

