#	Name: ASD01810380
#	Creating user name:	WinNT
#	Creation time:	15. 06. 2019 19:24

#	Modifying user name:	WinNT
#	Modification time:	15. 06. 2019 19:24

#	Program:	/corina/corina34_cracker 3.40 0067  02.08.2006

@<TRIPOS>MOLECULE
ASD01810380
  27   28    0    0    0
SMALL
NO_CHARGES


@<TRIPOS>ATOM
   1 C1            -0.0167     1.3783     0.0096 C.ar    
   2 C2             0.0021    -0.0041     0.0020 C.ar    
   3 C3             1.2351    -0.6692    -0.0134 C.ar    
   4 C4             2.3964     0.0948    -0.0204 C.ar    
   5 C5             2.2935     1.4795    -0.0120 C.ar    
   6 N6             1.1090     2.0711     0.0026 N.ar    
   7 N7            -1.1984    -0.7316     0.0101 N.pl3   
   8 N8             1.2958    -2.0628    -0.0210 N.pl3   
   9 N9             3.4504     2.2556    -0.0189 N.3     
  10 C10            3.1224     3.6931    -0.0080 C.3     
  11 C11            3.8205     4.3120     1.2212 C.3     
  12 C12            4.9649     3.3069     1.5161 C.3     
  13 C13            4.2959     1.9568     1.1565 C.3     
  14 H14           -0.9630     1.8986     0.0169 H       
  15 H15            3.3654    -0.3821    -0.0319 H       
  16 H16           -2.0485    -0.2646     0.0211 H       
  17 H17           -1.1778    -1.7014     0.0047 H       
  18 H18            0.4777    -2.5840    -0.0156 H       
  19 H19            2.1561    -2.5107    -0.0316 H       
  20 H20            3.4900     4.1642    -0.9196 H       
  21 H21            2.0436     3.8266     0.0719 H       
  22 H22            4.2239     5.2956     0.9806 H       
  23 H23            3.1332     4.3721     2.0651 H       
  24 H24            5.8268     3.4981     0.8769 H       
  25 H25            5.2473     3.3346     2.5685 H       
  26 H26            3.6823     1.6046     1.9857 H       
  27 H27            5.0523     1.2147     0.9010 H       
@<TRIPOS>BOND
   1    1    2 ar
   2    1    6 ar
   3    1   14 1
   4    2    3 ar
   5    2    7 1
   6    3    4 ar
   7    3    8 1
   8    4    5 ar
   9    4   15 1
  10    5    6 ar
  11    5    9 1
  12    7   16 1
  13    7   17 1
  14    8   18 1
  15    8   19 1
  16    9   10 1
  17    9   13 1
  18   10   11 1
  19   10   20 1
  20   10   21 1
  21   11   12 1
  22   11   22 1
  23   11   23 1
  24   12   13 1
  25   12   24 1
  26   12   25 1
  27   13   26 1
  28   13   27 1

#	End of record

