#	Name: ASD06710048
#	Creating user name:	WinNT
#	Creation time:	15. 06. 2019 21:08

#	Modifying user name:	WinNT
#	Modification time:	15. 06. 2019 21:08

#	Program:	/corina/corina34_cracker 3.40 0067  02.08.2006

@<TRIPOS>MOLECULE
ASD06710048
  67   70    0    0    0
SMALL
NO_CHARGES


@<TRIPOS>ATOM
   1 N1            -0.2347     0.6657    -0.8641 N.am    
   2 C2             0.0277     0.1132     0.3367 C.2     
   3 C3            -1.1899     0.3978     1.1936 C.3     
   4 N4            -2.0805     1.1479     0.2914 N.am    
   5 C5            -1.4343     1.2579    -0.8834 C.2     
   6 C6            -3.3431     1.6490     0.5963 C.ar    
   7 C7            -3.4660     2.8930     1.2069 C.ar    
   8 C8            -4.4788     0.9055     0.2836 C.ar    
   9 C9            -5.7209     1.3886     0.5782 C.ar    
  10 C10           -5.8590     2.6376     1.1979 C.ar    
  11 C11           -4.7161     3.3909     1.5096 C.ar    
  12 C12           -7.1927     3.1585     1.5147 C.2     
  13 O13           -7.3097     4.2402     2.0513 O.2     
  14 C14           -8.4179     2.3500     1.1737 C.3     
  15 N15           -9.6204     3.0843     1.5893 N.3     
  16 C16          -10.8349     2.4452     1.0654 C.3     
  17 F17           -4.8400     4.5962     2.1072 F       
  18 C18            0.6410     0.6296    -1.9536 C.ar    
  19 C19            1.5643     1.6531    -2.1353 C.ar    
  20 C20            0.5901    -0.4328    -2.8496 C.ar    
  21 C21            1.4509    -0.4719    -3.9236 C.ar    
  22 C22            2.3766     0.5581    -4.1128 C.ar    
  23 C23            2.4286     1.6211    -3.2073 C.ar    
  24 O24            1.0291    -0.4871     0.6635 O.2     
  25 C25           -1.8511    -0.9078     1.6398 C.3     
  26 C26           -0.8081     1.2509     2.4050 C.3     
  27 S27           -2.0791     2.0572    -2.2531 S.2     
  28 C28          -12.0635     3.2366     1.5182 C.3     
  29 C29           -9.6809     3.2107     3.0516 C.3     
  30 C30          -13.3285     2.5709     0.9726 C.3     
  31 C31          -13.2728     2.5460    -0.5562 C.3     
  32 C32          -12.0441     1.7546    -1.0090 C.3     
  33 C33          -10.7792     2.4203    -0.4633 C.3     
  34 C34            3.4246     2.7343    -3.4069 C.3     
  35 F35            3.2853     3.6744    -2.3802 F       
  36 F36            4.7212     2.2094    -3.3859 F       
  37 F37            3.1918     3.3527    -4.6401 F       
  38 C38            3.2738     0.5209    -5.2283 C.1     
  39 N39            3.9856     0.4914    -6.1132 N.1     
  40 H40           -2.5832     3.4683     1.4441 H       
  41 H41           -4.3761    -0.0575    -0.1944 H       
  42 H42           -6.5978     0.8079     0.3331 H       
  43 H43           -8.4514     2.1772     0.0980 H       
  44 H44           -8.3784     1.3932     1.6943 H       
  45 H45          -10.9004     1.4249     1.4433 H       
  46 H46            1.6036     2.4745    -1.4351 H       
  47 H47           -0.1253    -1.2285    -2.7025 H       
  48 H48            1.4109    -1.2975    -4.6188 H       
  49 H49           -1.1485    -1.4835     2.2423 H       
  50 H50           -2.7378    -0.6821     2.2322 H       
  51 H51           -2.1381    -1.4879     0.7628 H       
  52 H52           -0.3631     2.1860     2.0650 H       
  53 H53           -1.7000     1.4659     2.9935 H       
  54 H54           -0.0894     0.7086     3.0193 H       
  55 H55          -12.1032     3.2543     2.6073 H       
  56 H56          -11.9980     4.2569     1.1404 H       
  57 H57           -8.8023     3.7495     3.4064 H       
  58 H58          -10.5807     3.7583     3.3321 H       
  59 H59           -9.7046     2.2181     3.5014 H       
  60 H60          -13.3940     1.5506     1.3504 H       
  61 H61          -14.2038     3.1347     1.2951 H       
  62 H62          -14.1740     2.0718    -0.9449 H       
  63 H63          -13.2073     3.5663    -0.9341 H       
  64 H64          -12.1097     0.7343    -0.6311 H       
  65 H65          -12.0045     1.7369    -2.0981 H       
  66 H66          -10.7137     3.4406    -0.8412 H       
  67 H67           -9.9039     1.8565    -0.7859 H       
@<TRIPOS>BOND
   1    1    2 am
   2    1   18 1
   3    1    5 am
   4    2    3 1
   5    2   24 2
   6    3    4 1
   7    3   25 1
   8    3   26 1
   9    4    5 am
  10    4    6 1
  11    5   27 2
  12    6    7 ar
  13    6    8 ar
  14    7   11 ar
  15    7   40 1
  16    8    9 ar
  17    8   41 1
  18    9   10 ar
  19    9   42 1
  20   10   11 ar
  21   10   12 1
  22   11   17 1
  23   12   13 2
  24   12   14 1
  25   14   15 1
  26   14   43 1
  27   14   44 1
  28   15   16 1
  29   15   29 1
  30   16   28 1
  31   16   33 1
  32   16   45 1
  33   18   19 ar
  34   18   20 ar
  35   19   23 ar
  36   19   46 1
  37   20   21 ar
  38   20   47 1
  39   21   22 ar
  40   21   48 1
  41   22   23 ar
  42   22   38 1
  43   23   34 1
  44   25   49 1
  45   25   50 1
  46   25   51 1
  47   26   52 1
  48   26   53 1
  49   26   54 1
  50   28   30 1
  51   28   55 1
  52   28   56 1
  53   29   57 1
  54   29   58 1
  55   29   59 1
  56   30   31 1
  57   30   60 1
  58   30   61 1
  59   31   32 1
  60   31   62 1
  61   31   63 1
  62   32   33 1
  63   32   64 1
  64   32   65 1
  65   33   66 1
  66   33   67 1
  67   34   35 1
  68   34   36 1
  69   34   37 1
  70   38   39 3

#	End of record

