#	Name: ASD06610092
#	Creating user name:	WinNT
#	Creation time:	15. 06. 2019 21:07

#	Modifying user name:	WinNT
#	Modification time:	15. 06. 2019 21:07

#	Program:	/corina/corina34_cracker 3.40 0067  02.08.2006

@<TRIPOS>MOLECULE
ASD06610092
 350  349    0    0    0
SMALL
NO_CHARGES


@<TRIPOS>ATOM
   1 C1            -0.0144     1.2086     0.0087 C.2     
   2 O2             0.0021    -0.0041     0.0020 O.2     
   3 N3             2.4066     1.0431    -0.0153 N.am    
   4 C4             1.2803     1.9798     0.0005 C.3     
   5 C5             1.3375     2.8671    -1.2446 C.3     
   6 C6             2.5919     3.7414    -1.1906 C.3     
   7 C7             2.6483     4.6154    -2.4170 C.2     
   8 O8             1.7747     4.5462    -3.2489 O.2     
   9 O9             3.6689     5.4709    -2.5852 O.3     
  10 C10           -3.5426     1.9694    -0.5709 C.2     
  11 O11           -3.2948     3.0926    -0.9556 O.2     
  12 N12           -1.1906     1.8666     0.0178 N.am    
  13 C13           -2.4492     1.1169     0.0197 C.3     
  14 C14           -2.8163     0.7401     1.4565 C.3     
  15 C15           -1.7689    -0.2260     2.0138 C.3     
  16 C16           -2.1359    -0.6028     3.4505 C.3     
  17 N17           -1.1331    -1.5279     3.9841 N.pl3   
  18 C18           -1.2536    -2.0071     5.2671 C.2     
  19 N19           -2.2601    -1.6385     6.0086 N.2     
  20 N20           -0.3124    -2.8752     5.7678 N.pl3   
  21 C21           -7.1934     1.8552    -0.7166 C.2     
  22 O22           -7.2513     0.9284     0.0635 O.2     
  23 N23           -4.7957     1.4837    -0.6717 N.am    
  24 C24           -5.8586     2.3124    -1.2459 C.3     
  25 C25           -5.8417     2.1796    -2.7700 C.3     
  26 C26           -6.0700     0.7171    -3.1571 C.3     
  27 C27           -6.1775     0.6032    -4.6791 C.3     
  28 C28           -4.4865     2.6438    -3.3074 C.3     
  29 C29          -10.7041     2.4068    -1.5736 C.2     
  30 O30          -10.4202     2.9881    -2.5995 O.2     
  31 N31           -8.3230     2.4763    -1.1101 N.am    
  32 C32           -9.6207     2.0318    -0.5955 C.3     
  33 C33           -9.8934     2.7057     0.7507 C.3     
  34 C34           -8.8653     2.2276     1.7780 C.3     
  35 C35           -9.1340     2.8913     3.1040 C.2     
  36 O36          -10.0534     3.6672     3.2159 O.2     
  37 O37           -8.3519     2.6206     4.1608 O.3     
  38 C38          -14.3765     2.0035    -1.7299 C.2     
  39 O39          -14.4416     1.4296    -0.6634 O.2     
  40 N40          -11.9884     2.0962    -1.3083 N.am    
  41 C41          -13.0416     2.4607    -2.2592 C.3     
  42 C42          -17.7493     1.5864    -3.0763 C.2     
  43 O43          -17.3814     1.7937    -4.2132 O.2     
  44 N44          -15.4979     2.2322    -2.4416 N.am    
  45 C45          -16.7955     1.7878    -1.9271 C.3     
  46 C46          -17.3577     2.8475    -0.9774 C.3     
  47 C47          -16.4531     2.9628     0.2511 C.3     
  48 C48          -16.9441     4.1069     1.1404 C.3     
  49 C49          -16.4929     1.6516     1.0386 C.3     
  50 C50          -21.3553     1.1312    -3.4671 C.2     
  51 O51          -21.5695     1.3781    -2.2992 O.2     
  52 N52          -19.0113     1.1758    -2.8407 N.am    
  53 C53          -19.9385     0.9800    -3.9579 C.3     
  54 C54          -19.7471    -0.4220    -4.5398 C.3     
  55 C55          -18.3486    -0.5343    -5.1500 C.3     
  56 C56          -18.1572    -1.9364    -5.7319 C.3     
  57 N57          -16.8181    -2.0440    -6.3163 N.pl3   
  58 C58          -16.4166    -3.2207    -6.9028 C.2     
  59 N59          -17.2273    -4.2407    -6.9391 N.2     
  60 N60          -15.1599    -3.3217    -7.4512 N.pl3   
  61 C61          -24.6915     0.3731    -4.7549 C.2     
  62 O62          -24.2473    -0.2354    -5.7053 O.2     
  63 N63          -22.3845     0.9919    -4.3261 N.am    
  64 C64          -23.7618     1.1388    -3.8491 C.3     
  65 C65          -24.1485     2.6191    -3.8551 C.3     
  66 C66          -23.2865     3.3755    -2.8423 C.3     
  67 C67          -23.6732     4.8558    -2.8483 C.3     
  68 C68          -22.8112     5.6122    -1.8355 C.3     
  69 N69          -23.1824     7.0335    -1.8413 N.3     
  70 C70          -28.3005     0.2210    -5.3164 C.2     
  71 O71          -28.5086     1.1769    -4.5996 O.2     
  72 N72          -26.0166     0.3645    -4.5087 N.am    
  73 C73          -26.9204    -0.3799    -5.3893 C.3     
  74 C74          -26.9767    -1.8424    -4.9435 C.3     
  75 C75          -25.6026    -2.4873    -5.1353 C.3     
  76 C76          -25.6590    -3.9499    -4.6896 C.3     
  77 N77          -24.3432    -4.5674    -4.8733 N.pl3   
  78 C78          -24.1504    -5.8869    -4.5388 C.2     
  79 N79          -22.9798    -6.4363    -4.7022 N.2     
  80 N80          -25.1924    -6.6269    -4.0319 N.pl3   
  81 C81          -31.6678    -0.7645    -6.3427 C.2     
  82 O82          -31.3110    -1.8865    -6.6338 O.2     
  83 N83          -29.3034    -0.3039    -6.0479 N.am    
  84 C84          -30.6451     0.2803    -5.9771 C.3     
  85 C85          -30.7427     1.4535    -6.9543 C.3     
  86 C86          -29.7924     2.5674    -6.5104 C.3     
  87 C87          -29.8900     3.7406    -7.4876 C.3     
  88 N88          -28.9800     4.8071    -7.0627 N.pl3   
  89 C89          -28.8951     5.9695    -7.7919 C.2     
  90 N90          -29.6243     6.1226    -8.8615 N.2     
  91 N91          -28.0412     6.9704    -7.3931 N.pl3   
  92 C92          -35.2154    -0.7933    -7.2238 C.2     
  93 O93          -35.2655     0.4166    -7.2922 O.2     
  94 N94          -32.9788    -0.4520    -6.3463 N.am    
  95 C95          -33.9730    -1.4676    -6.7017 C.3     
  96 C96          -34.3235    -2.2938    -5.4625 C.3     
  97 C97          -33.0907    -3.0765    -5.0060 C.3     
  98 C98          -33.4412    -3.9027    -3.7668 C.3     
  99 N99          -32.2607    -4.6521    -3.3296 N.pl3   
 100 C100         -32.3354    -5.4704    -2.2273 C.2     
 101 N101         -31.2851    -6.1371    -1.8384 N.2     
 102 N102         -33.5177    -5.5853    -1.5353 N.pl3   
 103 C103         -38.6665    -1.7825    -7.9124 C.2     
 104 O104         -38.5187    -2.8672    -7.3904 O.2     
 105 N105         -36.2709    -1.5346    -7.6146 N.am    
 106 C106         -37.4788    -0.8791    -8.1222 C.3     
 107 C107         -37.3138    -0.5920    -9.6159 C.3     
 108 C108         -36.1869     0.4227    -9.8189 C.3     
 109 C109         -35.9381     0.6160   -11.3161 C.3     
 110 C110         -36.5855     1.7599    -9.1913 C.3     
 111 C111         -42.1183    -1.9275    -9.1071 C.2     
 112 O112         -41.9348    -1.0417    -9.9149 O.2     
 113 N113         -39.8931    -1.3852    -8.3050 N.am    
 114 C114         -41.0478    -2.2635    -8.1010 C.3     
 115 C115         -41.5965    -2.0644    -6.6868 C.3     
 116 C116         -40.5535    -2.5234    -5.6658 C.3     
 117 C117         -41.0502    -2.2098    -4.2531 C.3     
 118 C118         -40.3319    -4.0309    -5.8056 C.3     
 119 C119         -45.6654    -2.6951    -9.5453 C.2     
 120 O120         -45.7467    -3.2096    -8.4501 O.2     
 121 N121         -43.2796    -2.6115    -9.1092 N.am    
 122 C122         -44.3203    -2.2849   -10.0872 C.3     
 123 C123         -44.0464    -3.0340   -11.3928 C.3     
 124 O124         -44.1657    -4.4404   -11.1691 O.3     
 125 C125         -49.0331    -3.1396   -10.8959 C.2     
 126 O126         -48.6536    -2.9988   -12.0392 O.2     
 127 N127         -46.7780    -2.4903   -10.2779 N.am    
 128 C128         -48.0856    -2.8891    -9.7512 C.3     
 129 C129         -48.6405    -1.7723    -8.8648 C.3     
 130 C130         -48.7919    -0.4933    -9.6907 C.3     
 131 C131         -49.4621     0.5871    -8.8396 C.3     
 132 C132         -47.6785    -1.5180    -7.7026 C.3     
 133 C133         -51.8498    -2.4613   -12.1899 C.2     
 134 O134         -51.5568    -1.4351   -11.6233 O.2     
 135 N135         -50.3023    -3.5200   -10.6492 N.am    
 136 C136         -51.2235    -3.7635   -11.7621 C.3     
 137 C137         -52.3188    -4.7335   -11.3146 C.3     
 138 C138         -53.2078    -5.0851   -12.5091 C.3     
 139 C139         -54.2252    -6.1490   -12.0920 C.3     
 140 C140         -53.1668    -4.0769   -10.2234 C.3     
 141 O141         -52.7331    -2.4414   -13.2003 O.3     
 142 C142           3.6058     1.4228     0.4686 C.2     
 143 O143           3.7525     2.5401     0.9171 O.2     
 144 C144          21.6351    -1.6585     4.5475 C.3     
 145 C145          20.4589    -0.6802     4.5640 C.3     
 146 C146          19.2250    -1.3560     3.9625 C.3     
 147 C147          18.0488    -0.3777     3.9790 C.3     
 148 C148          16.8149    -1.0534     3.3775 C.3     
 149 C149          15.6387    -0.0751     3.3940 C.3     
 150 C150          14.4048    -0.7509     2.7924 C.3     
 151 C151          13.2286     0.2274     2.8089 C.3     
 152 C152          11.9947    -0.4484     2.2074 C.3     
 153 C153          10.8184     0.5299     2.2239 C.3     
 154 C154           9.5846    -0.1458     1.6224 C.3     
 155 C155           8.4083     0.8325     1.6389 C.3     
 156 C156           7.1745     0.1567     1.0374 C.3     
 157 C157           5.9982     1.1350     1.0539 C.3     
 158 C158           4.7644     0.4592     0.4523 C.3     
 159 H159           2.2893     0.1495    -0.3740 H       
 160 H160           1.3381     2.6024     0.8933 H       
 161 H161           1.3693     2.2407    -2.1361 H       
 162 H162           0.4527     3.5029    -1.2787 H       
 163 H163           2.5601     4.3679    -0.2992 H       
 164 H164           3.4767     3.1057    -1.1566 H       
 165 H165           3.6616     6.0106    -3.3875 H       
 166 H166          -1.2037     2.8365     0.0232 H       
 167 H167          -2.3335     0.2109    -0.5752 H       
 168 H168          -2.8450     1.6393     2.0719 H       
 169 H169          -3.7951     0.2607     1.4676 H       
 170 H170          -1.7401    -1.1252     1.3984 H       
 171 H171          -0.7900     0.2534     2.0026 H       
 172 H172          -2.1647     0.2964     4.0659 H       
 173 H173          -3.1148    -1.0822     3.4616 H       
 174 H174          -0.3840    -1.8022     3.4323 H       
 175 H175          -2.3452    -1.9766     6.9138 H       
 176 H176           0.4366    -3.1496     5.2160 H       
 177 H177          -0.3975    -3.2134     6.6730 H       
 178 H178          -4.9939     0.5854    -0.3641 H       
 179 H179          -5.6959     3.3544    -0.9701 H       
 180 H180          -6.6325     2.7963    -3.1972 H       
 181 H181          -5.2332     0.1134    -2.8058 H       
 182 H182          -6.9929     0.3601    -2.6999 H       
 183 H183          -5.2547     0.9602    -5.1362 H       
 184 H184          -6.3402    -0.4387    -4.9548 H       
 185 H185          -7.0143     1.2069    -5.0304 H       
 186 H186          -4.4744     2.5492    -4.3932 H       
 187 H187          -4.3238     3.6858    -3.0317 H       
 188 H188          -3.6957     2.0272    -2.8802 H       
 189 H189          -8.2768     3.2176    -1.7340 H       
 190 H190          -9.6082     0.9498    -0.4643 H       
 191 H191          -9.8181     3.7872     0.6376 H       
 192 H192         -10.8955     2.4450     1.0911 H       
 193 H193          -8.9407     1.1461     1.8912 H       
 194 H194          -7.8632     2.4883     1.4376 H       
 195 H195          -8.5633     3.0706     4.9902 H       
 196 H196         -12.2155     1.6313    -0.4878 H       
 197 H197         -12.8473     1.9806    -3.2183 H       
 198 H198         -13.0541     3.5427    -2.3904 H       
 199 H199         -15.4457     2.6912    -3.2946 H       
 200 H200         -16.6706     0.8478    -1.3896 H       
 201 H201         -17.3994     3.8088    -1.4895 H       
 202 H202         -18.3610     2.5590    -0.6641 H       
 203 H203         -15.4305     3.1640    -0.0682 H       
 204 H204         -17.9666     3.9057     1.4597 H       
 205 H205         -16.2996     4.1891     2.0156 H       
 206 H206         -16.9157     5.0410     0.5794 H       
 207 H207         -16.1431     0.8365     0.4050 H       
 208 H208         -15.8484     1.7338     1.9138 H       
 209 H209         -17.5154     1.4505     1.3579 H       
 210 H210         -19.3055     1.0100    -1.9314 H       
 211 H211         -19.7400     1.7239    -4.7295 H       
 212 H212         -19.8585    -1.1624    -3.7476 H       
 213 H213         -20.4958    -0.6003    -5.3116 H       
 214 H214         -18.2373     0.2061    -5.9421 H       
 215 H215         -17.6000    -0.3560    -4.3781 H       
 216 H216         -18.2686    -2.6768    -4.9398 H       
 217 H217         -18.9059    -2.1147    -6.5038 H       
 218 H218         -16.2148    -1.2849    -6.2893 H       
 219 H219         -16.9440    -5.0710    -7.3529 H       
 220 H220         -14.5566    -2.5627    -7.4243 H       
 221 H221         -14.8766    -4.1520    -7.8651 H       
 222 H222         -22.2132     0.7944    -5.2603 H       
 223 H223         -23.8387     0.7473    -2.8347 H       
 224 H224         -23.9868     3.0328    -4.8505 H       
 225 H225         -25.1997     2.7212    -3.5855 H       
 226 H226         -23.4481     2.9618    -1.8469 H       
 227 H227         -22.2353     3.2734    -3.1119 H       
 228 H228         -23.5115     5.2695    -3.8437 H       
 229 H229         -24.7243     4.9579    -2.5787 H       
 230 H230         -22.9728     5.1985    -0.8401 H       
 231 H231         -21.7600     5.5101    -2.1051 H       
 232 H232         -24.1676     7.1506    -1.6576 H       
 233 H233         -22.6267     7.5551    -1.1800 H       
 234 H234         -26.3718     0.8512    -3.7486 H       
 235 H235         -26.5544    -0.3264    -6.4146 H       
 236 H236         -27.2572    -1.8911    -3.8914 H       
 237 H237         -27.7153    -2.3763    -5.5415 H       
 238 H238         -25.3221    -2.4387    -6.1875 H       
 239 H239         -24.8640    -1.9535    -4.5373 H       
 240 H240         -25.9395    -3.9985    -3.6375 H       
 241 H241         -26.3975    -4.4838    -5.2876 H       
 242 H242         -23.6081    -4.0453    -5.2308 H       
 243 H243         -22.8438    -7.3673    -4.4662 H       
 244 H244         -26.0636    -6.2180    -3.9104 H       
 245 H245         -25.0564    -7.5579    -3.7959 H       
 246 H246         -29.1369    -1.0684    -6.6212 H       
 247 H247         -30.8340     0.6347    -4.9638 H       
 248 H248         -30.4671     1.1176    -7.9540 H       
 249 H249         -31.7650     1.8316    -6.9670 H       
 250 H250         -30.0680     2.9032    -5.5108 H       
 251 H251         -28.7702     2.1892    -6.4977 H       
 252 H252         -29.6144     3.4047    -8.4873 H       
 253 H253         -30.9123     4.1187    -7.5003 H       
 254 H254         -28.4374     4.6932    -6.2667 H       
 255 H255         -29.5644     6.9427    -9.3760 H       
 256 H256         -27.4986     6.8565    -6.5972 H       
 257 H257         -27.9813     7.7905    -7.9077 H       
 258 H258         -33.2641     0.4454    -6.1135 H       
 259 H259         -33.5643    -2.1224    -7.4713 H       
 260 H260         -34.6485    -1.6287    -4.6624 H       
 261 H261         -35.1265    -2.9898    -5.7051 H       
 262 H262         -32.7657    -3.7415    -5.8061 H       
 263 H263         -32.2877    -2.3804    -4.7634 H       
 264 H264         -33.7662    -3.2376    -2.9667 H       
 265 H265         -34.2442    -4.5987    -4.0094 H       
 266 H266         -31.4265    -4.5710    -3.8179 H       
 267 H267         -31.3378    -6.7145    -1.0607 H       
 268 H268         -34.2993    -5.0891    -1.8248 H       
 269 H269         -33.5704    -6.1626    -0.7576 H       
 270 H270         -36.2308    -2.5023    -7.5599 H       
 271 H271         -37.6358     0.0576    -7.5873 H       
 272 H272         -37.0688    -1.5165   -10.1387 H       
 273 H273         -38.2443    -0.1859   -10.0127 H       
 274 H274         -35.2772     0.0553    -9.3439 H       
 275 H275         -36.8478     0.9835   -11.7911 H       
 276 H276         -35.1353     1.3389   -11.4607 H       
 277 H277         -35.6541    -0.3366   -11.7632 H       
 278 H278         -36.7627     1.6222    -8.1246 H       
 279 H279         -35.7827     2.4829    -9.3359 H       
 280 H280         -37.4952     2.1274    -9.6663 H       
 281 H281         -40.0113    -0.5177    -8.7225 H       
 282 H282         -40.7417    -3.3017    -8.2292 H       
 283 H283         -41.8197    -1.0093    -6.5288 H       
 284 H284         -42.5072    -2.6508    -6.5645 H       
 285 H285         -39.6144    -2.0000    -5.8453 H       
 286 H286         -41.9893    -2.7333    -4.0735 H       
 287 H287         -40.3072    -2.5368    -3.5257 H       
 288 H288         -41.2081    -1.1359    -4.1535 H       
 289 H289         -39.9780    -4.2543    -6.8120 H       
 290 H290         -39.5889    -4.3579    -5.0782 H       
 291 H291         -41.2710    -4.5543    -5.6261 H       
 292 H292         -43.4264    -3.3200    -8.4631 H       
 293 H293         -44.3169    -1.2115   -10.2766 H       
 294 H294         -44.7684    -2.7237   -12.1481 H       
 295 H295         -43.0382    -2.8053   -11.7382 H       
 296 H296         -44.0047    -4.9788   -11.9560 H       
 297 H297         -46.7130    -2.0787   -11.1539 H       
 298 H298         -47.9777    -3.8002    -9.1628 H       
 299 H299         -49.6134    -2.0690    -8.4729 H       
 300 H300         -47.8083    -0.1474   -10.0084 H       
 301 H301         -49.4060    -0.6977   -10.5678 H       
 302 H302         -50.4457     0.2412    -8.5218 H       
 303 H303         -48.8480     0.7916    -7.9625 H       
 304 H304         -49.5699     1.4983    -9.4280 H       
 305 H305         -46.7056    -1.2212    -8.0945 H       
 306 H306         -48.0739    -0.7223    -7.0711 H       
 307 H307         -47.5706    -2.4291    -7.1141 H       
 308 H308         -50.6059    -3.6326    -9.7348 H       
 309 H309         -50.6755    -4.1955   -12.5994 H       
 310 H310         -51.8616    -5.6418   -10.9221 H       
 311 H311         -53.7338    -4.1918   -12.8460 H       
 312 H312         -52.5905    -5.4709   -13.3203 H       
 313 H313         -54.8585    -6.3995   -12.9430 H       
 314 H314         -53.6992    -7.0423   -11.7551 H       
 315 H315         -54.8425    -5.7632   -11.2807 H       
 316 H316         -53.9472    -4.7679    -9.9046 H       
 317 H317         -52.5335    -3.8264    -9.3724 H       
 318 H318         -53.6240    -3.1686   -10.6159 H       
 319 H319         -53.1082    -1.5826   -13.4388 H       
 320 H320          21.3818    -2.5412     5.1347 H       
 321 H321          21.8474    -1.9542     3.5201 H       
 322 H322          22.5141    -1.1771     4.9760 H       
 323 H323          20.2466    -0.3845     5.5914 H       
 324 H324          20.7122     0.2025     3.9769 H       
 325 H325          19.4373    -1.6516     2.9351 H       
 326 H326          18.9717    -2.2387     4.5497 H       
 327 H327          17.8365    -0.0820     5.0064 H       
 328 H328          18.3021     0.5051     3.3918 H       
 329 H329          17.0272    -1.3491     2.3500 H       
 330 H330          16.5616    -1.9361     3.9646 H       
 331 H331          15.4264     0.2206     4.4214 H       
 332 H332          15.8920     0.8076     2.8068 H       
 333 H333          14.6171    -1.0466     1.7650 H       
 334 H334          14.1515    -1.6336     3.3796 H       
 335 H335          13.0163     0.5231     3.8364 H       
 336 H336          13.4819     1.1101     2.2218 H       
 337 H337          12.2070    -0.7440     1.1800 H       
 338 H338          11.7414    -1.3311     2.7946 H       
 339 H339          10.6062     0.8256     3.2513 H       
 340 H340          11.0718     1.4127     1.6367 H       
 341 H341           9.7969    -0.4415     0.5950 H       
 342 H342           9.3313    -1.0285     2.2095 H       
 343 H343           8.1961     1.1282     2.6663 H       
 344 H344           8.6617     1.7152     1.0517 H       
 345 H345           7.3868    -0.1390     0.0099 H       
 346 H346           6.9211    -0.7260     1.6245 H       
 347 H347           5.7859     1.4307     2.0813 H       
 348 H348           6.2516     2.0177     0.4667 H       
 349 H349           4.5110    -0.4235     1.0395 H       
 350 H350           4.9766     0.1636    -0.5751 H       
@<TRIPOS>BOND
   1    1    2 2
   2    1    4 1
   3    1   12 am
   4    3  142 am
   5    3    4 1
   6    3  159 1
   7    4    5 1
   8    4  160 1
   9    5    6 1
  10    5  161 1
  11    5  162 1
  12    6    7 1
  13    6  163 1
  14    6  164 1
  15    7    8 2
  16    7    9 1
  17    9  165 1
  18   10   11 2
  19   10   13 1
  20   10   23 am
  21   12   13 1
  22   12  166 1
  23   13   14 1
  24   13  167 1
  25   14   15 1
  26   14  168 1
  27   14  169 1
  28   15   16 1
  29   15  170 1
  30   15  171 1
  31   16   17 1
  32   16  172 1
  33   16  173 1
  34   17   18 1
  35   17  174 1
  36   18   19 2
  37   18   20 1
  38   19  175 1
  39   20  176 1
  40   20  177 1
  41   21   22 2
  42   21   24 1
  43   21   31 am
  44   23   24 1
  45   23  178 1
  46   24   25 1
  47   24  179 1
  48   25   26 1
  49   25   28 1
  50   25  180 1
  51   26   27 1
  52   26  181 1
  53   26  182 1
  54   27  183 1
  55   27  184 1
  56   27  185 1
  57   28  186 1
  58   28  187 1
  59   28  188 1
  60   29   30 2
  61   29   32 1
  62   29   40 am
  63   31   32 1
  64   31  189 1
  65   32   33 1
  66   32  190 1
  67   33   34 1
  68   33  191 1
  69   33  192 1
  70   34   35 1
  71   34  193 1
  72   34  194 1
  73   35   36 2
  74   35   37 1
  75   37  195 1
  76   38   39 2
  77   38   41 1
  78   38   44 am
  79   40   41 1
  80   40  196 1
  81   41  197 1
  82   41  198 1
  83   42   43 2
  84   42   45 1
  85   42   52 am
  86   44   45 1
  87   44  199 1
  88   45   46 1
  89   45  200 1
  90   46   47 1
  91   46  201 1
  92   46  202 1
  93   47   48 1
  94   47   49 1
  95   47  203 1
  96   48  204 1
  97   48  205 1
  98   48  206 1
  99   49  207 1
 100   49  208 1
 101   49  209 1
 102   50   51 2
 103   50   53 1
 104   50   63 am
 105   52   53 1
 106   52  210 1
 107   53   54 1
 108   53  211 1
 109   54   55 1
 110   54  212 1
 111   54  213 1
 112   55   56 1
 113   55  214 1
 114   55  215 1
 115   56   57 1
 116   56  216 1
 117   56  217 1
 118   57   58 1
 119   57  218 1
 120   58   59 2
 121   58   60 1
 122   59  219 1
 123   60  220 1
 124   60  221 1
 125   61   62 2
 126   61   64 1
 127   61   72 am
 128   63   64 1
 129   63  222 1
 130   64   65 1
 131   64  223 1
 132   65   66 1
 133   65  224 1
 134   65  225 1
 135   66   67 1
 136   66  226 1
 137   66  227 1
 138   67   68 1
 139   67  228 1
 140   67  229 1
 141   68   69 1
 142   68  230 1
 143   68  231 1
 144   69  232 1
 145   69  233 1
 146   70   71 2
 147   70   73 1
 148   70   83 am
 149   72   73 1
 150   72  234 1
 151   73   74 1
 152   73  235 1
 153   74   75 1
 154   74  236 1
 155   74  237 1
 156   75   76 1
 157   75  238 1
 158   75  239 1
 159   76   77 1
 160   76  240 1
 161   76  241 1
 162   77   78 1
 163   77  242 1
 164   78   79 2
 165   78   80 1
 166   79  243 1
 167   80  244 1
 168   80  245 1
 169   81   82 2
 170   81   84 1
 171   81   94 am
 172   83   84 1
 173   83  246 1
 174   84   85 1
 175   84  247 1
 176   85   86 1
 177   85  248 1
 178   85  249 1
 179   86   87 1
 180   86  250 1
 181   86  251 1
 182   87   88 1
 183   87  252 1
 184   87  253 1
 185   88   89 1
 186   88  254 1
 187   89   90 2
 188   89   91 1
 189   90  255 1
 190   91  256 1
 191   91  257 1
 192   92   93 2
 193   92   95 1
 194   92  105 am
 195   94   95 1
 196   94  258 1
 197   95   96 1
 198   95  259 1
 199   96   97 1
 200   96  260 1
 201   96  261 1
 202   97   98 1
 203   97  262 1
 204   97  263 1
 205   98   99 1
 206   98  264 1
 207   98  265 1
 208   99  100 1
 209   99  266 1
 210  100  101 2
 211  100  102 1
 212  101  267 1
 213  102  268 1
 214  102  269 1
 215  103  104 2
 216  103  106 1
 217  103  113 am
 218  105  106 1
 219  105  270 1
 220  106  107 1
 221  106  271 1
 222  107  108 1
 223  107  272 1
 224  107  273 1
 225  108  109 1
 226  108  110 1
 227  108  274 1
 228  109  275 1
 229  109  276 1
 230  109  277 1
 231  110  278 1
 232  110  279 1
 233  110  280 1
 234  111  112 2
 235  111  114 1
 236  111  121 am
 237  113  114 1
 238  113  281 1
 239  114  115 1
 240  114  282 1
 241  115  116 1
 242  115  283 1
 243  115  284 1
 244  116  117 1
 245  116  118 1
 246  116  285 1
 247  117  286 1
 248  117  287 1
 249  117  288 1
 250  118  289 1
 251  118  290 1
 252  118  291 1
 253  119  120 2
 254  119  122 1
 255  119  127 am
 256  121  122 1
 257  121  292 1
 258  122  123 1
 259  122  293 1
 260  123  124 1
 261  123  294 1
 262  123  295 1
 263  124  296 1
 264  125  126 2
 265  125  128 1
 266  125  135 am
 267  127  128 1
 268  127  297 1
 269  128  129 1
 270  128  298 1
 271  129  130 1
 272  129  132 1
 273  129  299 1
 274  130  131 1
 275  130  300 1
 276  130  301 1
 277  131  302 1
 278  131  303 1
 279  131  304 1
 280  132  305 1
 281  132  306 1
 282  132  307 1
 283  133  134 2
 284  133  136 1
 285  133  141 1
 286  135  136 1
 287  135  308 1
 288  136  137 1
 289  136  309 1
 290  137  138 1
 291  137  140 1
 292  137  310 1
 293  138  139 1
 294  138  311 1
 295  138  312 1
 296  139  313 1
 297  139  314 1
 298  139  315 1
 299  140  316 1
 300  140  317 1
 301  140  318 1
 302  141  319 1
 303  142  143 2
 304  142  158 1
 305  144  145 1
 306  144  320 1
 307  144  321 1
 308  144  322 1
 309  145  146 1
 310  145  323 1
 311  145  324 1
 312  146  147 1
 313  146  325 1
 314  146  326 1
 315  147  148 1
 316  147  327 1
 317  147  328 1
 318  148  149 1
 319  148  329 1
 320  148  330 1
 321  149  150 1
 322  149  331 1
 323  149  332 1
 324  150  151 1
 325  150  333 1
 326  150  334 1
 327  151  152 1
 328  151  335 1
 329  151  336 1
 330  152  153 1
 331  152  337 1
 332  152  338 1
 333  153  154 1
 334  153  339 1
 335  153  340 1
 336  154  155 1
 337  154  341 1
 338  154  342 1
 339  155  156 1
 340  155  343 1
 341  155  344 1
 342  156  157 1
 343  156  345 1
 344  156  346 1
 345  157  158 1
 346  157  347 1
 347  157  348 1
 348  158  349 1
 349  158  350 1

#	End of record

