#	Name: ASD01028624
#	Creating user name:	WinNT
#	Creation time:	15. 06. 2019 18:57

#	Modifying user name:	WinNT
#	Modification time:	15. 06. 2019 18:57

#	Program:	/corina/corina34_cracker 3.40 0067  02.08.2006

@<TRIPOS>MOLECULE
ASD01028624
  44   48    0    0    0
SMALL
NO_CHARGES


@<TRIPOS>ATOM
   1 C1            -0.0379     1.3568     0.3584 C.2     
   2 N2            -0.0109    -0.0033     0.2725 N.pl3   
   3 C3             1.1192     2.0619     0.5010 C.2     
   4 C4             2.3612     1.3836     0.5612 C.2     
   5 C5             2.3907     0.0274     0.4757 C.2     
   6 C6             1.1804    -0.6837     0.3282 C.2     
   7 N7             0.8921    -1.9705     0.2202 N.2     
   8 N8            -0.3808    -2.1172     0.1039 N.2     
   9 C9            -0.9759    -0.9525     0.1301 C.2     
  10 C10           -3.3316    -2.7151     1.1855 C.ar    
  11 C11           -3.1878    -2.0254     0.0202 C.ar    
  12 C12           -3.7064    -2.5227    -1.1734 C.ar    
  13 C13           -4.3705    -3.7103    -1.2099 C.ar    
  14 C14           -4.5389    -4.4518    -0.0278 C.ar    
  15 C15           -4.0102    -3.9440     1.1851 C.ar    
  16 N16           -5.1862    -5.6215    -0.0329 N.ar    
  17 C17           -5.3456    -6.3170     1.0667 C.ar    
  18 C18           -4.8509    -5.8751     2.2920 C.ar    
  19 C19           -4.1799    -4.6880     2.3681 C.ar    
  20 C20            1.0783     3.5380     0.5928 C.2     
  21 C21           -2.4587    -0.7065     0.0218 C.3     
  22 F22            3.5675    -0.6339     0.5319 F       
  23 F23           -2.8850     0.0607     1.1112 F       
  24 C24            1.4308     4.3268     1.6651 C.2     
  25 C25            1.2835     5.6750     1.4484 C.2     
  26 N26            0.8407     6.0720     0.2924 N.2     
  27 S27            0.5720     4.6902    -0.6553 S.3     
  28 C28            1.6269     6.6711     2.5259 C.3     
  29 C29           -2.7577     0.0431    -1.2780 C.3     
  30 H30           -0.9819     1.8790     0.3085 H       
  31 H31            3.2794     1.9408     0.6739 H       
  32 H32           -2.9218    -2.3213     2.1038 H       
  33 H33           -3.5796    -1.9567    -2.0844 H       
  34 H34           -4.7669    -4.0812    -2.1435 H       
  35 H35           -5.8748    -7.2574     1.0217 H       
  36 H36           -4.9985    -6.4705     3.1809 H       
  37 H37           -3.7900    -4.3302     3.3096 H       
  38 H38            1.7921     3.9196     2.5978 H       
  39 H39            2.6739     6.9599     2.4334 H       
  40 H40            0.9958     7.5534     2.4196 H       
  41 H41            1.4594     6.2203     3.5041 H       
  42 H42           -2.4256    -0.5546    -2.1268 H       
  43 H43           -3.8302     0.2210    -1.3564 H       
  44 H44           -2.2303     0.9971    -1.2769 H       
@<TRIPOS>BOND
   1    1    2 1
   2    1    3 2
   3    1   30 1
   4    2    6 1
   5    2    9 1
   6    3    4 1
   7    3   20 1
   8    4    5 2
   9    4   31 1
  10    5    6 1
  11    5   22 1
  12    6    7 2
  13    7    8 1
  14    8    9 2
  15    9   21 1
  16   10   11 ar
  17   10   15 ar
  18   10   32 1
  19   11   12 ar
  20   11   21 1
  21   12   13 ar
  22   12   33 1
  23   13   14 ar
  24   13   34 1
  25   14   15 ar
  26   14   16 ar
  27   15   19 ar
  28   16   17 ar
  29   17   18 ar
  30   17   35 1
  31   18   19 ar
  32   18   36 1
  33   19   37 1
  34   20   24 2
  35   20   27 1
  36   21   23 1
  37   21   29 1
  38   24   25 1
  39   24   38 1
  40   25   26 2
  41   25   28 1
  42   26   27 1
  43   28   39 1
  44   28   40 1
  45   28   41 1
  46   29   42 1
  47   29   43 1
  48   29   44 1

#	End of record

