#	Name: ASD01510119
#	Creating user name:	WinNT
#	Creation time:	15. 06. 2019 19:21

#	Modifying user name:	WinNT
#	Modification time:	15. 06. 2019 19:21

#	Program:	/corina/corina34_cracker 3.40 0067  02.08.2006

@<TRIPOS>MOLECULE
ASD01510119
  66   70    0    0    0
SMALL
NO_CHARGES


@<TRIPOS>ATOM
   1 C1             2.3263     1.1059    -0.5086 C.3     
   2 N2             2.0008    -0.3252    -0.4451 N.3     
   3 C3             2.6152    -0.9533     0.7329 C.3     
   4 C4             2.1883    -2.4212     0.8060 C.3     
   5 N5             2.5960    -3.1092    -0.4268 N.3     
   6 C6             1.9817    -2.4812    -1.6049 C.3     
   7 C7             2.4086    -1.0133    -1.6780 C.3     
   8 C8             2.2888    -4.4601    -0.3669 C.ar    
   9 N9             1.7041    -4.9399     0.7193 N.ar    
  10 C10            1.3939    -6.2249     0.8153 C.ar    
  11 C11            1.6897    -7.0728    -0.2423 C.ar    
  12 C12            2.3082    -6.5320    -1.3758 C.ar    
  13 N13            2.5836    -5.2347    -1.4007 N.ar    
  14 O14            2.6170    -7.3215    -2.4340 O.3     
  15 C15            3.2468    -6.6917    -3.5515 C.3     
  16 C16            3.5122    -7.7179    -4.6227 C.ar    
  17 C17            2.5599    -7.9656    -5.5937 C.ar    
  18 C18            2.8034    -8.9069    -6.5763 C.ar    
  19 C19            3.9992    -9.6003    -6.5882 C.ar    
  20 C20            4.9518    -9.3519    -5.6177 C.ar    
  21 C21            4.7102    -8.4074    -4.6377 C.ar    
  22 S22            1.2969    -8.7885    -0.1605 S.3     
  23 C23            0.7045    -8.9814     1.4877 C.ar    
  24 C24           -0.6566    -8.8854     1.7538 C.ar    
  25 C25           -1.1214    -9.0361     3.0460 C.ar    
  26 C26           -0.2361    -9.2825     4.0777 C.ar    
  27 C27            1.1260    -9.3801     3.8187 C.ar    
  28 C28            1.5962    -9.2351     2.5218 C.ar    
  29 N29            2.0210    -9.6295     4.8640 N.am    
  30 C30            3.2605    -9.1014     4.8302 C.2     
  31 O31            3.5698    -8.3331     3.9404 O.2     
  32 C32            4.2438    -9.4563     5.8753 C.ar    
  33 C33            5.5284    -8.9111     5.8433 C.ar    
  34 C34            6.4413    -9.2465     6.8217 C.ar    
  35 C35            6.0860   -10.1213     7.8330 C.ar    
  36 C36            4.8143   -10.6653     7.8706 C.ar    
  37 C37            3.8900   -10.3337     6.9017 C.ar    
  38 H38            3.4075     1.2302    -0.5701 H       
  39 H39            1.8592     1.5460    -1.3897 H       
  40 H40            1.9538     1.6033     0.3869 H       
  41 H41            3.7006    -0.8938     0.6523 H       
  42 H42            2.2882    -0.4341     1.6339 H       
  43 H43            2.6659    -2.8966     1.6628 H       
  44 H44            1.1052    -2.4800     0.9141 H       
  45 H45            2.3087    -3.0003    -2.5058 H       
  46 H46            0.8963    -2.5407    -1.5242 H       
  47 H47            1.9310    -0.5379    -2.5347 H       
  48 H48            3.4916    -0.9545    -1.7860 H       
  49 H49            0.9173    -6.6072     1.7058 H       
  50 H50            2.5926    -5.9146    -3.9468 H       
  51 H51            4.1894    -6.2461    -3.2337 H       
  52 H52            1.6257    -7.4239    -5.5844 H       
  53 H53            2.0591    -9.1010    -7.3344 H       
  54 H54            4.1891   -10.3362    -7.3554 H       
  55 H55            5.8860    -9.8938    -5.6268 H       
  56 H56            5.4544    -8.2134    -3.8795 H       
  57 H57           -1.3512    -8.6926     0.9497 H       
  58 H58           -2.1792    -8.9608     3.2502 H       
  59 H59           -0.6029    -9.3990     5.0868 H       
  60 H60            2.6541    -9.3106     2.3181 H       
  61 H61            1.7497   -10.1827     5.6132 H       
  62 H62            5.8071    -8.2284     5.0542 H       
  63 H63            7.4356    -8.8257     6.7979 H       
  64 H64            6.8045   -10.3809     8.5964 H       
  65 H65            4.5434   -11.3475     8.6628 H       
  66 H66            2.8977   -10.7588     6.9323 H       
@<TRIPOS>BOND
   1    1    2 1
   2    1   38 1
   3    1   39 1
   4    1   40 1
   5    2    3 1
   6    2    7 1
   7    3    4 1
   8    3   41 1
   9    3   42 1
  10    4    5 1
  11    4   43 1
  12    4   44 1
  13    5    6 1
  14    5    8 1
  15    6    7 1
  16    6   45 1
  17    6   46 1
  18    7   47 1
  19    7   48 1
  20    8    9 ar
  21    8   13 ar
  22    9   10 ar
  23   10   11 ar
  24   10   49 1
  25   11   12 ar
  26   11   22 1
  27   12   13 ar
  28   12   14 1
  29   14   15 1
  30   15   16 1
  31   15   50 1
  32   15   51 1
  33   16   17 ar
  34   16   21 ar
  35   17   18 ar
  36   17   52 1
  37   18   19 ar
  38   18   53 1
  39   19   20 ar
  40   19   54 1
  41   20   21 ar
  42   20   55 1
  43   21   56 1
  44   22   23 1
  45   23   24 ar
  46   23   28 ar
  47   24   25 ar
  48   24   57 1
  49   25   26 ar
  50   25   58 1
  51   26   27 ar
  52   26   59 1
  53   27   28 ar
  54   27   29 1
  55   28   60 1
  56   29   30 am
  57   29   61 1
  58   30   31 2
  59   30   32 1
  60   32   33 ar
  61   32   37 ar
  62   33   34 ar
  63   33   62 1
  64   34   35 ar
  65   34   63 1
  66   35   36 ar
  67   35   64 1
  68   36   37 ar
  69   36   65 1
  70   37   66 1

#	End of record

