#	Name: ASD01910048
#	Creating user name:	WinNT
#	Creation time:	15. 06. 2019 19:55

#	Modifying user name:	WinNT
#	Modification time:	15. 06. 2019 19:55

#	Program:	/corina/corina34_cracker 3.40 0067  02.08.2006

@<TRIPOS>MOLECULE
ASD01910048
  44   47    0    0    0
SMALL
NO_CHARGES


@<TRIPOS>ATOM
   1 C1            -0.0167     1.3779     0.0096 C.ar    
   2 C2             0.0021    -0.0041     0.0020 C.ar    
   3 C3             1.2038    -0.6826    -0.0131 C.ar    
   4 C4             2.4062     0.0276    -0.0207 C.ar    
   5 C5             2.3867     1.4229    -0.0130 C.ar    
   6 C6             1.1745     2.0941     0.0021 C.ar    
   7 N7             1.1496     3.4950     0.0099 N.pl3   
   8 C8             0.2270     4.2828    -0.6092 C.2     
   9 C9             0.5562     5.5776    -0.3597 C.2     
  10 C10            1.7167     5.5809     0.4369 C.2     
  11 N11            2.0656     4.3311     0.6606 N.2     
  12 N12           -0.8589     3.8408    -1.3625 N.am    
  13 C13           -1.6986     4.7339    -1.9227 C.2     
  14 C14           -2.8503     4.2652    -2.7217 C.ar    
  15 C15           -3.7219     5.1876    -3.3033 C.ar    
  16 C16           -4.7950     4.7433    -4.0478 C.ar    
  17 C17           -5.0082     3.3870    -4.2187 C.ar    
  18 C18           -4.1484     2.4674    -3.6447 C.ar    
  19 C19           -3.0680     2.8983    -2.9029 C.ar    
  20 C20            2.4219     6.7848     0.9419 C.ar    
  21 C21            3.5663     6.6479     1.7250 C.ar    
  22 C22            4.2182     7.7711     2.1921 C.ar    
  23 C23            3.7373     9.0310     1.8846 C.ar    
  24 C24            2.6015     9.1729     1.1080 C.ar    
  25 C25            1.9455     8.0566     0.6300 C.ar    
  26 O26           -1.5087     5.9251    -1.7708 O.2     
  27 C27            3.6547    -0.6735    -0.0359 C.1     
  28 N28            4.6452    -1.2297    -0.0480 N.1     
  29 H29           -0.9603     1.9032     0.0169 H       
  30 H30           -0.9269    -0.5549     0.0083 H       
  31 H31            1.2143    -1.7625    -0.0186 H       
  32 H32            3.3133     1.9777    -0.0185 H       
  33 H33            0.0227     6.4486    -0.7105 H       
  34 H34           -1.0105     2.8904    -1.4838 H       
  35 H35           -3.5568     6.2465    -3.1704 H       
  36 H36           -5.4703     5.4559    -4.4980 H       
  37 H37           -5.8498     3.0445    -4.8026 H       
  38 H38           -4.3209     1.4101    -3.7813 H       
  39 H39           -2.3976     2.1795    -2.4554 H       
  40 H40            3.9422     5.6646     1.9663 H       
  41 H41            5.1053     7.6661     2.7992 H       
  42 H42            4.2504     9.9073     2.2525 H       
  43 H43            2.2302    10.1590     0.8711 H       
  44 H44            1.0589     8.1684     0.0235 H       
@<TRIPOS>BOND
   1    1    2 ar
   2    1    6 ar
   3    1   29 1
   4    2    3 ar
   5    2   30 1
   6    3    4 ar
   7    3   31 1
   8    4    5 ar
   9    4   27 1
  10    5    6 ar
  11    5   32 1
  12    6    7 1
  13    7    8 1
  14    7   11 1
  15    8    9 2
  16    8   12 1
  17    9   10 1
  18    9   33 1
  19   10   11 2
  20   10   20 1
  21   12   13 am
  22   12   34 1
  23   13   14 1
  24   13   26 2
  25   14   15 ar
  26   14   19 ar
  27   15   16 ar
  28   15   35 1
  29   16   17 ar
  30   16   36 1
  31   17   18 ar
  32   17   37 1
  33   18   19 ar
  34   18   38 1
  35   19   39 1
  36   20   21 ar
  37   20   25 ar
  38   21   22 ar
  39   21   40 1
  40   22   23 ar
  41   22   41 1
  42   23   24 ar
  43   23   42 1
  44   24   25 ar
  45   24   43 1
  46   25   44 1
  47   27   28 3

#	End of record

