#	Name: ASD02198012
#	Creating user name:	WinNT
#	Creation time:	15. 06. 2019 20:18

#	Modifying user name:	WinNT
#	Modification time:	15. 06. 2019 20:18

#	Program:	/corina/corina34_cracker 3.40 0067  02.08.2006

@<TRIPOS>MOLECULE
ASD02198012
  44   46    0    0    0
SMALL
NO_CHARGES


@<TRIPOS>ATOM
   1 C1            -0.0286     1.5058     0.4482 C.2     
   2 C2             0.0034     0.0301     0.1629 C.3     
   3 N3            -1.2111    -0.6276     0.6673 N.pl3   
   4 C4            -2.4017     0.0668     0.5249 C.2     
   5 C5            -2.4187     1.4656     0.4767 C.2     
   6 C6            -1.1926     2.1978     0.5644 C.2     
   7 C7             0.1031    -0.1881    -1.3482 C.3     
   8 S8            -3.9701    -0.5674     0.3888 S.3     
   9 C9            -4.6827     1.0342     0.2773 C.2     
  10 C10           -3.7045     1.9897     0.3432 C.2     
  11 C11           -6.0619     1.2975     0.1395 C.2     
  12 O12           -6.4587     2.4477     0.0699 O.2     
  13 N13           -6.9406     0.2770     0.0848 N.am    
  14 N14           -3.9673     3.3508     0.2837 N.pl3   
  15 C15            1.1908     2.1946     0.6065 C.2     
  16 O16            1.1892     3.3899     0.8381 O.2     
  17 O17            2.3608     1.5289     0.5013 O.3     
  18 C18           -8.3138     0.5381     0.0466 C.ar    
  19 C19           -8.7928     1.6453    -0.6417 C.ar    
  20 C20          -10.1497     1.9004    -0.6776 C.ar    
  21 C21          -11.0310     1.0550    -0.0287 C.ar    
  22 C22          -10.5573    -0.0482     0.6574 C.ar    
  23 C23           -9.2022    -0.3124     0.6920 C.ar    
  24 C24          -12.5108     1.3370    -0.0691 C.3     
  25 C25          -13.1305     0.6371    -1.2804 C.3     
  26 H26            0.8760    -0.4095     0.6460 H       
  27 H27           -1.1804    -1.5051     1.0795 H       
  28 H28           -1.1919     3.2678     0.7109 H       
  29 H29            1.0149     0.2769    -1.7231 H       
  30 H30            0.1266    -1.2570    -1.5602 H       
  31 H31           -0.7613     0.2605    -1.8378 H       
  32 H32           -6.6204    -0.6385     0.0720 H       
  33 H33           -4.8803     3.6648     0.1907 H       
  34 H34           -3.2380     3.9882     0.3352 H       
  35 H35            3.1423     2.0850     0.6249 H       
  36 H36           -8.1050     2.3063    -1.1481 H       
  37 H37          -10.5228     2.7611    -1.2126 H       
  38 H38          -11.2482    -0.7062     1.1634 H       
  39 H39           -8.8329    -1.1741     1.2281 H       
  40 H40          -12.9767     0.9646     0.8433 H       
  41 H41          -12.6739     2.4118    -0.1478 H       
  42 H42          -12.9674    -0.4378    -1.2017 H       
  43 H43          -14.2008     0.8410    -1.3096 H       
  44 H44          -12.6646     1.0094    -2.1928 H       
@<TRIPOS>BOND
   1    1    2 1
   2    1   15 1
   3    1    6 2
   4    2    3 1
   5    2    7 1
   6    2   26 1
   7    3    4 1
   8    3   27 1
   9    4    5 2
  10    4    8 1
  11    5    6 1
  12    5   10 1
  13    6   28 1
  14    7   29 1
  15    7   30 1
  16    7   31 1
  17    8    9 1
  18    9   10 2
  19    9   11 1
  20   10   14 1
  21   11   12 2
  22   11   13 am
  23   13   18 1
  24   13   32 1
  25   14   33 1
  26   14   34 1
  27   15   16 2
  28   15   17 1
  29   17   35 1
  30   18   19 ar
  31   18   23 ar
  32   19   20 ar
  33   19   36 1
  34   20   21 ar
  35   20   37 1
  36   21   22 ar
  37   21   24 1
  38   22   23 ar
  39   22   38 1
  40   23   39 1
  41   24   25 1
  42   24   40 1
  43   24   41 1
  44   25   42 1
  45   25   43 1
  46   25   44 1

#	End of record

