#	Name: ASD01900424
#	Creating user name:	WinNT
#	Creation time:	15. 06. 2019 19:51

#	Modifying user name:	WinNT
#	Modification time:	15. 06. 2019 19:51

#	Program:	/corina/corina34_cracker 3.40 0067  02.08.2006

@<TRIPOS>MOLECULE
ASD01900424
  26   28    0    0    0
SMALL
NO_CHARGES


@<TRIPOS>ATOM
   1 C1            -0.0230     1.3968     0.0608 C.ar    
   2 C2            -0.0078    -0.0093     0.1325 C.ar    
   3 C3             1.2178    -0.6743     0.1261 C.ar    
   4 C4             2.3709     0.0817     0.0491 C.ar    
   5 C5             2.2814     1.4659    -0.0191 C.ar    
   6 N6             1.1186     2.0770    -0.0124 N.ar    
   7 N7            -2.1492     0.6990     0.1678 N.2     
   8 N8            -1.3126    -0.4216     0.1973 N.pl3   
   9 C9            -1.4337     1.7898     0.0937 C.2     
  10 N10           -1.9266     3.0974     0.0456 N.pl3   
  11 C11           -3.3039     3.3227    -0.0399 C.ar    
  12 C12           -3.8068     4.6144     0.0730 C.ar    
  13 C13           -5.1709     4.8342    -0.0126 C.ar    
  14 C14           -6.0337     3.7688    -0.2105 C.ar    
  15 C15           -5.5346     2.4823    -0.3225 C.ar    
  16 C16           -4.1714     2.2579    -0.2434 C.ar    
  17 F17           -6.3790     1.4454    -0.5146 F       
  18 F18           -5.6610     6.0884     0.0973 F       
  19 F19           -2.9652     5.6534     0.2664 F       
  20 H20            1.2640    -1.7520     0.1803 H       
  21 H21            3.3371    -0.4009     0.0422 H       
  22 H22            3.1865     2.0520    -0.0788 H       
  23 H23           -1.6090    -1.3434     0.2543 H       
  24 H24           -1.3130     3.8483     0.0717 H       
  25 H25           -7.0976     3.9419    -0.2770 H       
  26 H26           -3.7828     1.2545    -0.3355 H       
@<TRIPOS>BOND
   1    1    2 ar
   2    1    6 ar
   3    1    9 1
   4    2    3 ar
   5    2    8 1
   6    3    4 ar
   7    3   20 1
   8    4    5 ar
   9    4   21 1
  10    5    6 ar
  11    5   22 1
  12    7    8 1
  13    7    9 2
  14    8   23 1
  15    9   10 1
  16   10   11 1
  17   10   24 1
  18   11   12 ar
  19   11   16 ar
  20   12   13 ar
  21   12   19 1
  22   13   14 ar
  23   13   18 1
  24   14   15 ar
  25   14   25 1
  26   15   16 ar
  27   15   17 1
  28   16   26 1

#	End of record

