#	Name: ASD04590919
#	Creating user name:	WinNT
#	Creation time:	15. 06. 2019 20:51

#	Modifying user name:	WinNT
#	Modification time:	15. 06. 2019 20:51

#	Program:	/corina/corina34_cracker 3.40 0067  02.08.2006

@<TRIPOS>MOLECULE
ASD04590919
  60   65    0    0    0
SMALL
NO_CHARGES


@<TRIPOS>ATOM
   1 N1            -2.3347    -2.7744    -0.7529 N.ar    
   2 C2            -1.1589    -2.1682    -0.8553 C.ar    
   3 N3            -0.0163    -2.8004    -0.6414 N.ar    
   4 C4            -0.0069    -4.0881    -0.3101 C.ar    
   5 C5            -1.2400    -4.7606    -0.1928 C.ar    
   6 C6            -2.4153    -4.0541    -0.4278 C.ar    
   7 N7             1.0009    -4.9791    -0.0357 N.pl3   
   8 C8             0.4770    -6.2255     0.2609 C.ar    
   9 C9            -0.9246    -6.1462     0.1774 C.ar    
  10 C10            1.0522    -7.4434     0.5998 C.ar    
  11 N11            0.2986    -8.4977     0.8367 N.ar    
  12 C12           -1.0203    -8.4566     0.7668 C.ar    
  13 C13           -1.6779    -7.2903     0.4379 C.ar    
  14 N14           -1.1262    -0.8267    -1.1985 N.pl3   
  15 C15           -2.3061    -0.1647    -1.5376 C.ar    
  16 N16           -3.4359    -0.8473    -1.6292 N.ar    
  17 C17           -4.5755    -0.2628    -1.9470 C.ar    
  18 C18           -4.6274     1.0999    -2.1986 C.ar    
  19 C19           -3.4568     1.8521    -2.1117 C.ar    
  20 C20           -2.2827     1.2061    -1.7701 C.ar    
  21 N21           -5.8400     1.7126    -2.5362 N.3     
  22 C22            2.4298    -4.6563    -0.0548 C.3     
  23 C23           -6.9350     0.7329    -2.5651 C.3     
  24 C24           -6.1477     2.8149    -1.6142 C.3     
  25 C25           -7.4365     3.5074    -2.0634 C.3     
  26 N26           -8.5315     2.5276    -2.0923 N.3     
  27 C27           -8.2238     1.4254    -3.0142 C.3     
  28 C28            2.7886    -3.5051    -1.0093 C.3     
  29 C29           -8.0396     1.9792    -4.4285 C.3     
  30 C30           -9.3745     0.4170    -3.0063 C.3     
  31 C31            2.8685    -3.7347     1.0954 C.3     
  32 C32            2.5346    -2.5522     0.1707 C.3     
  33 H33           -3.3756    -4.5414    -0.3462 H       
  34 H34            2.1267    -7.5270     0.6693 H       
  35 H35           -1.5918    -9.3501     0.9703 H       
  36 H36           -2.7562    -7.2634     0.3828 H       
  37 H37           -0.2828    -0.3476    -1.2030 H       
  38 H38           -5.4780    -0.8525    -2.0123 H       
  39 H39           -3.4675     2.9151    -2.3024 H       
  40 H40           -1.3575     1.7579    -1.6933 H       
  41 H41            3.0611    -5.5368    -0.1738 H       
  42 H42           -6.6892    -0.0667    -3.2640 H       
  43 H43           -7.0752     0.3147    -1.5683 H       
  44 H44           -6.2790     2.4203    -0.6067 H       
  45 H45           -5.3279     3.5332    -1.6199 H       
  46 H46           -7.6823     4.3069    -1.3645 H       
  47 H47           -7.2963     3.9256    -3.0602 H       
  48 H48           -8.7300     2.1797    -1.1662 H       
  49 H49            3.8264    -3.5212    -1.3420 H       
  50 H50            2.0818    -3.3820    -1.8299 H       
  51 H51           -7.2191     2.6967    -4.4337 H       
  52 H52           -7.8114     1.1614    -5.1121 H       
  53 H53           -8.9570     2.4740    -4.7474 H       
  54 H54          -10.2926     0.9110    -3.3244 H       
  55 H55           -9.1460    -0.4004    -3.6902 H       
  56 H56           -9.5046     0.0221    -1.9987 H       
  57 H57            2.2263    -3.7968     1.9739 H       
  58 H58            3.9282    -3.8135     1.3381 H       
  59 H59            3.2514    -1.7334     0.2328 H       
  60 H60            1.5001    -2.2172     0.2465 H       
@<TRIPOS>BOND
   1    1    2 ar
   2    1    6 ar
   3    2    3 ar
   4    2   14 1
   5    3    4 ar
   6    4    5 ar
   7    4    7 1
   8    5    6 ar
   9    5    9 1
  10    6   33 1
  11    7    8 1
  12    7   22 1
  13    8    9 ar
  14    8   10 ar
  15    9   13 ar
  16   10   11 ar
  17   10   34 1
  18   11   12 ar
  19   12   13 ar
  20   12   35 1
  21   13   36 1
  22   14   15 1
  23   14   37 1
  24   15   16 ar
  25   15   20 ar
  26   16   17 ar
  27   17   18 ar
  28   17   38 1
  29   18   19 ar
  30   18   21 1
  31   19   20 ar
  32   19   39 1
  33   20   40 1
  34   21   24 1
  35   21   23 1
  36   22   31 1
  37   22   28 1
  38   22   41 1
  39   23   27 1
  40   23   42 1
  41   23   43 1
  42   24   25 1
  43   24   44 1
  44   24   45 1
  45   25   26 1
  46   25   46 1
  47   25   47 1
  48   26   27 1
  49   26   48 1
  50   27   29 1
  51   27   30 1
  52   28   32 1
  53   28   49 1
  54   28   50 1
  55   29   51 1
  56   29   52 1
  57   29   53 1
  58   30   54 1
  59   30   55 1
  60   30   56 1
  61   31   32 1
  62   31   57 1
  63   31   58 1
  64   32   59 1
  65   32   60 1

#	End of record

