#	Name: ASD02500875
#	Creating user name:	WinNT
#	Creation time:	15. 06. 2019 20:23

#	Modifying user name:	WinNT
#	Modification time:	15. 06. 2019 20:23

#	Program:	/corina/corina34_cracker 3.40 0067  02.08.2006

@<TRIPOS>MOLECULE
ASD02500875
  48   50    0    0    0
SMALL
NO_CHARGES


@<TRIPOS>ATOM
   1 S1            -0.0300     1.6321    -0.8428 S.3     
   2 C2            -0.0028    -0.0648    -0.3232 C.2     
   3 C3             1.4214    -0.4182    -0.3337 C.2     
   4 N4             2.2356     0.5570    -0.7017 N.am    
   5 C5             1.7286     1.7517    -1.0267 C.2     
   6 S6             2.6101     3.1318    -1.5258 S.2     
   7 C7            -1.0566    -0.8537     0.0082 C.2     
   8 O8             1.8232    -1.5253    -0.0264 O.2     
   9 C9             3.6821     0.3307    -0.7526 C.3     
  10 C10            4.0653    -0.1635    -2.1237 C.2     
  11 O11            3.2171    -0.3116    -2.9714 O.2     
  12 O12            5.3489    -0.4393    -2.4033 O.3     
  13 C13           -2.4009    -0.2737     0.1216 C.ar    
  14 C14           -3.5308    -1.0944     0.0188 C.ar    
  15 C15           -4.7922    -0.5427     0.1263 C.ar    
  16 C16           -4.9388     0.8278     0.3367 C.ar    
  17 C17           -3.8192     1.6428     0.4384 C.ar    
  18 C18           -2.5567     1.1008     0.3387 C.ar    
  19 O19           -5.8919    -1.3365     0.0265 O.3     
  20 C20           -5.6679    -2.7312    -0.1894 C.3     
  21 C21           -7.0123    -3.4566    -0.2742 C.3     
  22 O22           -6.1811     1.3676     0.4420 O.3     
  23 C23           -6.2594     2.7781     0.6571 C.3     
  24 C24           -7.7054     3.1930     0.7474 C.ar    
  25 C25           -8.3458     3.2039     1.9725 C.ar    
  26 C26           -8.3892     3.5678    -0.3941 C.ar    
  27 C27           -9.7152     3.9488    -0.3118 C.ar    
  28 C28          -10.3584     3.9546     0.9131 C.ar    
  29 C29           -9.6721     3.5839     2.0558 C.ar    
  30 Cl30         -12.0239     4.4330     1.0172 Cl      
  31 H31           -0.9063    -1.9079     0.1885 H       
  32 H32            4.2036     1.2649    -0.5443 H       
  33 H33            3.9598    -0.4144    -0.0071 H       
  34 H34            5.5460    -0.7536    -3.2963 H       
  35 H35           -3.4161    -2.1558    -0.1445 H       
  36 H36           -3.9385     2.7038     0.6006 H       
  37 H37           -1.6878     1.7371     0.4185 H       
  38 H38           -5.1201    -2.8712    -1.1213 H       
  39 H39           -5.0869    -3.1383     0.6382 H       
  40 H40           -7.5601    -3.3166     0.6577 H       
  41 H41           -7.5932    -3.0495    -1.1018 H       
  42 H42           -6.8414    -4.5205    -0.4389 H       
  43 H43           -5.7497     3.0328     1.5863 H       
  44 H44           -5.7831     3.2993    -0.1733 H       
  45 H45           -7.8098     2.9152     2.8645 H       
  46 H46           -7.8871     3.5633    -1.3502 H       
  47 H47          -10.2492     4.2424    -1.2035 H       
  48 H48          -10.1737     3.5878     3.0123 H       
@<TRIPOS>BOND
   1    1    2 1
   2    1    5 1
   3    2    3 1
   4    2    7 2
   5    3    4 am
   6    3    8 2
   7    4    5 am
   8    4    9 1
   9    5    6 2
  10    7   13 1
  11    7   31 1
  12    9   10 1
  13    9   32 1
  14    9   33 1
  15   10   11 2
  16   10   12 1
  17   12   34 1
  18   13   14 ar
  19   13   18 ar
  20   14   15 ar
  21   14   35 1
  22   15   16 ar
  23   15   19 1
  24   16   17 ar
  25   16   22 1
  26   17   18 ar
  27   17   36 1
  28   18   37 1
  29   19   20 1
  30   20   21 1
  31   20   38 1
  32   20   39 1
  33   21   40 1
  34   21   41 1
  35   21   42 1
  36   22   23 1
  37   23   24 1
  38   23   43 1
  39   23   44 1
  40   24   25 ar
  41   24   26 ar
  42   25   29 ar
  43   25   45 1
  44   26   27 ar
  45   26   46 1
  46   27   28 ar
  47   27   47 1
  48   28   29 ar
  49   28   30 1
  50   29   48 1

#	End of record

