#	Name: ASD07930725
#	Creating user name:	WinNT
#	Creation time:	15. 06. 2019 21:13

#	Modifying user name:	WinNT
#	Modification time:	15. 06. 2019 21:13

#	Program:	/corina/corina34_cracker 3.40 0067  02.08.2006

@<TRIPOS>MOLECULE
ASD07930725
  37   39    0    0    0
SMALL
NO_CHARGES


@<TRIPOS>ATOM
   1 C1            -0.0178     1.4608     0.0101 C.3     
   2 N2             0.8031    -0.4153    -2.1619 N.2     
   3 N3            -0.8796    -1.7833    -1.2911 N.pl3   
   4 C4            -0.9005    -2.8248    -0.2586 C.3     
   5 C5            -1.2102    -2.1834     1.1010 C.3     
   6 S6             0.0275    -0.8859     1.4156 S.o2    
   7 N7             0.0021    -0.0041     0.0020 N.am    
   8 C8             0.0002    -0.7257    -1.1832 C.2     
   9 C9             0.4646    -3.5132    -0.1997 C.3     
  10 O10           -0.4323     0.0192     2.4099 O.2     
  11 O11            1.3354    -1.4387     1.4687 O.2     
  12 C12           -1.9634    -3.8404    -0.5898 C.2     
  13 S13           -3.3416    -4.2315     0.4300 S.3     
  14 C14           -3.9138    -5.4119    -0.7417 C.2     
  15 C15           -3.0711    -5.4460    -1.7934 C.2     
  16 C16           -2.0037    -4.5754    -1.7056 C.2     
  17 C17           -5.1302    -6.2392    -0.5955 C.ar    
  18 C18           -5.5021    -7.1534    -1.5876 C.ar    
  19 N19           -6.5974    -7.8727    -1.4157 N.ar    
  20 C20           -7.3341    -7.7382    -0.3306 C.ar    
  21 N21           -7.0206    -6.8893     0.6283 N.ar    
  22 C22           -5.9392    -6.1345     0.5416 C.ar    
  23 Cl23          -0.7963    -4.4526    -2.9468 Cl      
  24 H24            1.0048     1.8381     0.0023 H       
  25 H25           -0.5450     1.8219    -0.8730 H       
  26 H26           -0.5280     1.8123     0.9069 H       
  27 H27            0.7883    -0.9307    -2.9835 H       
  28 H28           -1.4804    -1.8399    -2.0505 H       
  29 H29           -2.2071    -1.7432     1.0811 H       
  30 H30           -1.1573    -2.9394     1.8845 H       
  31 H31            1.2322    -2.7780     0.0418 H       
  32 H32            0.4485    -4.2871     0.5677 H       
  33 H33            0.6857    -3.9650    -1.1667 H       
  34 H34           -3.2215    -6.1001    -2.6396 H       
  35 H35           -4.9040    -7.2691    -2.4794 H       
  36 H36           -8.2230    -8.3423    -0.2239 H       
  37 H37           -5.6887    -5.4417     1.3313 H       
@<TRIPOS>BOND
   1    1    7 1
   2    1   24 1
   3    1   25 1
   4    1   26 1
   5    2    8 2
   6    2   27 1
   7    3    4 1
   8    3    8 1
   9    3   28 1
  10    4    5 1
  11    4    9 1
  12    4   12 1
  13    5    6 1
  14    5   29 1
  15    5   30 1
  16    6    7 am
  17    6   10 2
  18    6   11 2
  19    7    8 1
  20    9   31 1
  21    9   32 1
  22    9   33 1
  23   12   13 1
  24   12   16 2
  25   13   14 1
  26   14   15 2
  27   14   17 1
  28   15   16 1
  29   15   34 1
  30   16   23 1
  31   17   18 ar
  32   17   22 ar
  33   18   19 ar
  34   18   35 1
  35   19   20 ar
  36   20   21 ar
  37   20   36 1
  38   21   22 ar
  39   22   37 1

#	End of record

