#	Name: ASD03200058
#	Creating user name:	WinNT
#	Creation time:	15. 06. 2019 20:34

#	Modifying user name:	WinNT
#	Modification time:	15. 06. 2019 20:34

#	Program:	/corina/corina34_cracker 3.40 0067  02.08.2006

@<TRIPOS>MOLECULE
ASD03200058
  47   49    0    0    0
SMALL
NO_CHARGES


@<TRIPOS>ATOM
   1 C1             0.9661    -1.0293    -0.1620 C.3     
   2 N2            -0.0316     0.0365    -0.0040 N.3     
   3 C3             0.3000     0.9106     1.1285 C.3     
   4 C4             1.6483     1.5882     0.8738 C.3     
   5 C5             2.7278     0.5164     0.6990 C.3     
   6 C6             2.3344    -0.4095    -0.4553 C.3     
   7 C7            -1.3130    -0.4952     0.1338 C.ar    
   8 C8            -2.0182    -0.3608     1.3272 C.ar    
   9 C9            -3.2845    -0.9013     1.4241 C.ar    
  10 N10           -3.8302    -1.5396     0.4062 N.ar    
  11 C11           -3.1990    -1.6908    -0.7430 C.ar    
  12 C12           -1.9273    -1.1734    -0.9258 C.ar    
  13 N13           -1.2615    -1.3362    -2.1481 N.am    
  14 C14           -1.4467    -2.4578    -2.8721 C.2     
  15 C15           -0.8514    -2.5754    -4.2060 C.2     
  16 O16           -2.1086    -3.3732    -2.4180 O.2     
  17 C17           -1.0043    -3.6938    -4.9932 C.2     
  18 S18           -0.1691    -3.4534    -6.4658 S.3     
  19 C19            0.3431    -1.8543    -5.9411 C.2     
  20 N20           -0.1251    -1.6092    -4.7561 N.2     
  21 C21            1.1729    -0.9305    -6.7304 C.2     
  22 N22           -1.7153    -4.8254    -4.6497 N.pl3   
  23 N23            1.9895     2.4463     2.0163 N.3     
  24 C24            1.5017     0.2578    -6.2332 C.2     
  25 C25            1.6501    -1.3314    -8.1025 C.3     
  26 H26            1.0216    -1.6140     0.7562 H       
  27 H27            0.6767    -1.6781    -0.9887 H       
  28 H28           -0.4734     1.6707     1.2391 H       
  29 H29            0.3585     0.3168     2.0406 H       
  30 H30            1.5864     2.1933    -0.0308 H       
  31 H31            3.6817     0.9935     0.4744 H       
  32 H32            2.8169    -0.0639     1.6174 H       
  33 H33            3.0777    -1.2002    -0.5571 H       
  34 H34            2.2832     0.1641    -1.3807 H       
  35 H35           -1.5798     0.1592     2.1660 H       
  36 H36           -3.8367    -0.8006     2.3467 H       
  37 H37           -3.6811    -2.2204    -1.5514 H       
  38 H38           -0.6673    -0.6418    -2.4730 H       
  39 H39           -2.1597    -4.8764    -3.7890 H       
  40 H40           -1.7706    -5.5700    -5.2689 H       
  41 H41            2.8765     2.9051     1.8717 H       
  42 H42            1.2590     3.1192     2.1940 H       
  43 H43            2.1107     0.9358    -6.8126 H       
  44 H44            1.1597     0.5451    -5.2499 H       
  45 H45            1.2838    -2.3308    -8.3370 H       
  46 H46            1.2717    -0.6235    -8.8400 H       
  47 H47            2.7399    -1.3297    -8.1230 H       
@<TRIPOS>BOND
   1    1    2 1
   2    1    6 1
   3    1   26 1
   4    1   27 1
   5    2    3 1
   6    2    7 1
   7    3    4 1
   8    3   28 1
   9    3   29 1
  10    4    5 1
  11    4   23 1
  12    4   30 1
  13    5    6 1
  14    5   31 1
  15    5   32 1
  16    6   33 1
  17    6   34 1
  18    7    8 ar
  19    7   12 ar
  20    8    9 ar
  21    8   35 1
  22    9   10 ar
  23    9   36 1
  24   10   11 ar
  25   11   12 ar
  26   11   37 1
  27   12   13 1
  28   13   14 am
  29   13   38 1
  30   14   15 1
  31   14   16 2
  32   15   17 2
  33   15   20 1
  34   17   18 1
  35   17   22 1
  36   18   19 1
  37   19   20 2
  38   19   21 1
  39   21   24 2
  40   21   25 1
  41   22   39 1
  42   22   40 1
  43   23   41 1
  44   23   42 1
  45   24   43 1
  46   24   44 1
  47   25   45 1
  48   25   46 1
  49   25   47 1

#	End of record

