#	Name: ASD01885091
#	Creating user name:	WinNT
#	Creation time:	15. 06. 2019 19:49

#	Modifying user name:	WinNT
#	Modification time:	15. 06. 2019 19:49

#	Program:	/corina/corina34_cracker 3.40 0067  02.08.2006

@<TRIPOS>MOLECULE
ASD01885091
  54   57    0    0    0
SMALL
NO_CHARGES


@<TRIPOS>ATOM
   1 C1             0.1794     1.0842    -0.2888 C.2     
   2 C2             0.1600    -0.3223    -0.2041 C.2     
   3 C3            -1.0372    -0.9693    -0.1709 C.2     
   4 C4            -2.2310    -0.2294    -0.2213 C.2     
   5 C5            -2.1965     1.1171    -0.3027 C.2     
   6 N6            -1.0041     1.7794    -0.3298 N.pl3   
   7 C7            -0.6614     3.0937    -0.4091 C.2     
   8 N8             0.6451     3.1601    -0.4140 N.2     
   9 N9             1.1520     1.9797    -0.3380 N.2     
  10 C10           -1.6131     4.2600    -0.4791 C.3     
  11 Cl11           1.6451    -1.2192    -0.1435 Cl      
  12 C12           -1.9347     4.7415     0.9371 C.3     
  13 C13           -2.9010     5.9256     0.8661 C.3     
  14 C14           -1.0822    -2.4729    -0.0811 C.3     
  15 N15           -1.2239    -2.8754     1.3246 N.3     
  16 C16           -1.5083    -4.3119     1.4346 C.3     
  17 C17           -1.5051    -4.7225     2.9088 C.3     
  18 C18           -2.5657    -3.9140     3.6612 C.3     
  19 C19           -2.2740    -2.4206     3.4905 C.3     
  20 C20           -2.2550    -2.0767     1.9993 C.3     
  21 C21           -3.9292    -4.2281     3.1013 C.ar    
  22 C22           -4.3338    -5.5427     2.9636 C.ar    
  23 C23           -5.5845    -5.8307     2.4501 C.ar    
  24 C24           -6.4307    -4.8042     2.0746 C.ar    
  25 C25           -6.0264    -3.4895     2.2132 C.ar    
  26 C26           -4.7774    -3.2014     2.7308 C.ar    
  27 C27           -2.5259    -4.2762     5.1471 C.3     
  28 F28           -1.2605    -3.9805     5.6654 F       
  29 F29           -3.4953    -3.5370     5.8334 F       
  30 F30           -2.7854    -5.6423     5.3013 F       
  31 H31           -3.1815    -0.7415    -0.1950 H       
  32 H32           -3.1202     1.6753    -0.3415 H       
  33 H33           -1.1527     5.0713    -1.0429 H       
  34 H34           -2.5328     3.9492    -0.9748 H       
  35 H35           -2.3951     3.9302     1.5010 H       
  36 H36           -1.0150     5.0522     1.4329 H       
  37 H37           -2.4406     6.7369     0.3023 H       
  38 H38           -3.8206     5.6149     0.3704 H       
  39 H39           -3.1301     6.2687     1.8750 H       
  40 H40           -1.9318    -2.8458    -0.6532 H       
  41 H41           -0.1601    -2.8889    -0.4869 H       
  42 H42           -2.4859    -4.5227     1.0010 H       
  43 H43           -0.7444    -4.8754     0.8989 H       
  44 H44           -1.7316    -5.7855     2.9910 H       
  45 H45           -0.5235    -4.5247     3.3395 H       
  46 H46           -3.0500    -1.8390     3.9882 H       
  47 H47           -1.3045    -2.1866     3.9303 H       
  48 H48           -2.0334    -1.0169     1.8739 H       
  49 H49           -3.2291    -2.2981     1.5631 H       
  50 H50           -3.6727    -6.3447     3.2570 H       
  51 H51           -5.9003    -6.8578     2.3419 H       
  52 H52           -7.4075    -5.0292     1.6727 H       
  53 H53           -6.6874    -2.6875     1.9195 H       
  54 H54           -4.4630    -2.1742     2.8425 H       
@<TRIPOS>BOND
   1    1    2 1
   2    1    9 2
   3    1    6 1
   4    2    3 2
   5    2   11 1
   6    3    4 1
   7    3   14 1
   8    4    5 2
   9    4   31 1
  10    5    6 1
  11    5   32 1
  12    6    7 1
  13    7    8 2
  14    7   10 1
  15    8    9 1
  16   10   12 1
  17   10   33 1
  18   10   34 1
  19   12   13 1
  20   12   35 1
  21   12   36 1
  22   13   37 1
  23   13   38 1
  24   13   39 1
  25   14   15 1
  26   14   40 1
  27   14   41 1
  28   15   16 1
  29   15   20 1
  30   16   17 1
  31   16   42 1
  32   16   43 1
  33   17   18 1
  34   17   44 1
  35   17   45 1
  36   18   19 1
  37   18   21 1
  38   18   27 1
  39   19   20 1
  40   19   46 1
  41   19   47 1
  42   20   48 1
  43   20   49 1
  44   21   22 ar
  45   21   26 ar
  46   22   23 ar
  47   22   50 1
  48   23   24 ar
  49   23   51 1
  50   24   25 ar
  51   24   52 1
  52   25   26 ar
  53   25   53 1
  54   26   54 1
  55   27   28 1
  56   27   29 1
  57   27   30 1

#	End of record

