#	Name: ASD01917575
#	Creating user name:	WinNT
#	Creation time:	15. 06. 2019 20:09

#	Modifying user name:	WinNT
#	Modification time:	15. 06. 2019 20:09

#	Program:	/corina/corina34_cracker 3.40 0067  02.08.2006

@<TRIPOS>MOLECULE
ASD01917575
  28   29    0    0    0
SMALL
NO_CHARGES


@<TRIPOS>ATOM
   1 C1            -0.0161     1.3365     0.0094 C.2     
   2 N2             0.0021    -0.0041     0.0020 N.2     
   3 C3             1.1337    -0.6639    -0.0124 C.2     
   4 C4             2.3626     0.0354    -0.0199 C.2     
   5 C5             2.3509     1.4037    -0.0124 C.2     
   6 N6             1.1526     2.0545     0.0021 N.pl3   
   7 N7             0.8163     3.4131     0.0126 N.2     
   8 C8            -0.4927     3.5259     0.0257 C.2     
   9 C9            -1.0549     2.2579     0.0186 C.2     
  10 C10            3.6035    -0.6792    -0.0347 C.1     
  11 C11            4.6209    -1.2650    -0.0468 C.1     
  12 C12           -1.2594     4.8232     0.0405 C.3     
  13 C13           -1.8265     5.0645     1.4409 C.3     
  14 C14           -0.3231     5.9732    -0.3357 C.3     
  15 C15           -2.4070     4.7489    -0.9686 C.3     
  16 H16            1.1279    -1.7439    -0.0181 H       
  17 H17            3.2767     1.9599    -0.0179 H       
  18 H18           -2.1103     2.0286     0.0216 H       
  19 H19            5.5307    -1.7889    -0.0576 H       
  20 H20           -1.0089     5.1174     2.1598 H       
  21 H21           -2.3810     6.0029     1.4516 H       
  22 H22           -2.4935     4.2452     1.7089 H       
  23 H23            0.0809     5.8013    -1.3334 H       
  24 H24           -0.8776     6.9116    -0.3250 H       
  25 H25            0.4945     6.0262     0.3832 H       
  26 H26           -3.0741     3.9296    -0.7006 H       
  27 H27           -2.9615     5.6873    -0.9579 H       
  28 H28           -2.0030     4.5770    -1.9663 H       
@<TRIPOS>BOND
   1    1    2 1
   2    1    6 1
   3    1    9 2
   4    2    3 2
   5    3    4 1
   6    3   16 1
   7    4    5 2
   8    4   10 1
   9    5    6 1
  10    5   17 1
  11    6    7 1
  12    7    8 2
  13    8    9 1
  14    8   12 1
  15    9   18 1
  16   10   11 3
  17   11   19 1
  18   12   13 1
  19   12   15 1
  20   12   14 1
  21   13   20 1
  22   13   21 1
  23   13   22 1
  24   14   23 1
  25   14   24 1
  26   14   25 1
  27   15   26 1
  28   15   27 1
  29   15   28 1

#	End of record

