#	Name: ASD02560127
#	Creating user name:	WinNT
#	Creation time:	15. 06. 2019 20:24

#	Modifying user name:	WinNT
#	Modification time:	15. 06. 2019 20:24

#	Program:	/corina/corina34_cracker 3.40 0067  02.08.2006

@<TRIPOS>MOLECULE
ASD02560127
  58   62    0    0    0
SMALL
NO_CHARGES


@<TRIPOS>ATOM
   1 N1             0.0387     1.3182     0.4388 N.2     
   2 N2            -0.1981     0.1167     0.2790 N.2     
   3 C3             1.4573     1.6161     0.2028 C.3     
   4 N4             2.1343     0.2955     0.2503 N.3     
   5 C5             1.0167    -0.6191    -0.0947 C.3     
   6 S6             1.1420    -2.1572     0.8588 S.3     
   7 C7             1.0520    -1.5811     2.5765 C.3     
   8 C8             1.1440    -2.7621     3.5080 C.2     
   9 O9             1.2590    -3.8822     3.0574 O.2     
  10 N10            1.0986    -2.5736     4.8417 N.am    
  11 Br11           1.6980     2.4457    -1.5633 Br      
  12 C12            3.1519     0.2214    -0.6994 C.ar    
  13 C13            1.1151    -3.6711     5.7020 C.ar    
  14 C14            0.4567    -3.6033     6.9274 C.ar    
  15 C15            0.4713    -4.6856     7.7791 C.ar    
  16 C16            1.1481    -5.8527     7.4118 C.ar    
  17 C17            1.8077    -5.9165     6.1811 C.ar    
  18 C18            1.7843    -4.8329     5.3319 C.ar    
  19 Cl19          -0.3826    -2.1533     7.3819 Cl      
  20 C20            1.1665    -7.0135     8.3211 C.2     
  21 O21            0.5931    -6.9564     9.3908 O.2     
  22 O22            1.8193    -8.1375     7.9656 O.3     
  23 C23            4.2355     1.1243    -0.6540 C.ar    
  24 C24            3.1117    -0.7384    -1.6883 C.ar    
  25 C25            4.1232    -0.8212    -2.6405 C.ar    
  26 C26            5.1777     0.0407    -2.6224 C.ar    
  27 C27            5.2580     1.0300    -1.6290 C.ar    
  28 C28            6.3376     1.9361    -1.5859 C.ar    
  29 C29            6.3818     2.8856    -0.6048 C.ar    
  30 C30            5.3756     2.9710     0.3539 C.ar    
  31 C31            4.3176     2.1137     0.3391 C.ar    
  32 O32            7.3273     1.8649    -2.5136 O.3     
  33 C33            8.3878     2.8166    -2.4051 C.3     
  34 C34            9.4004     2.5820    -3.5278 C.3     
  35 C35           10.5559     3.5766    -3.6562 C.3     
  36 C36           10.8167     2.1653    -3.1260 C.3     
  37 H37            1.8434     2.2690     0.9856 H       
  38 H38            1.0174    -0.8329    -1.1635 H       
  39 H39            1.8776    -0.8973     2.7741 H       
  40 H40            0.1058    -1.0643     2.7373 H       
  41 H41            1.0544    -1.6746     5.2033 H       
  42 H42           -0.0391    -4.6327     8.7294 H       
  43 H43            2.3316    -6.8164     5.8947 H       
  44 H44            2.2938    -4.8819     4.3809 H       
  45 H45            1.8034    -8.8719     8.5945 H       
  46 H46            2.2863    -1.4340    -1.7242 H       
  47 H47            4.0714    -1.5813    -3.4059 H       
  48 H48            5.9535    -0.0391    -3.3695 H       
  49 H49            7.2088     3.5795    -0.5720 H       
  50 H50            5.4338     3.7305     1.1196 H       
  51 H51            3.5452     2.1933     1.0897 H       
  52 H52            7.9812     3.8246    -2.4873 H       
  53 H53            8.8819     2.7017    -1.4403 H       
  54 H54            8.9936     2.1617    -4.4476 H       
  55 H55           10.9096     3.8103    -4.6604 H       
  56 H56           10.5947     4.3981    -2.9408 H       
  57 H57           11.0270     2.0582    -2.0619 H       
  58 H58           11.3419     1.4705    -3.7815 H       
@<TRIPOS>BOND
   1    1    2 2
   2    1    3 1
   3    2    5 1
   4    3    4 1
   5    3   11 1
   6    3   37 1
   7    4    5 1
   8    4   12 1
   9    5    6 1
  10    5   38 1
  11    6    7 1
  12    7    8 1
  13    7   39 1
  14    7   40 1
  15    8    9 2
  16    8   10 am
  17   10   13 1
  18   10   41 1
  19   12   23 ar
  20   12   24 ar
  21   13   14 ar
  22   13   18 ar
  23   14   15 ar
  24   14   19 1
  25   15   16 ar
  26   15   42 1
  27   16   17 ar
  28   16   20 1
  29   17   18 ar
  30   17   43 1
  31   18   44 1
  32   20   21 2
  33   20   22 1
  34   22   45 1
  35   23   27 ar
  36   23   31 ar
  37   24   25 ar
  38   24   46 1
  39   25   26 ar
  40   25   47 1
  41   26   27 ar
  42   26   48 1
  43   27   28 ar
  44   28   29 ar
  45   28   32 1
  46   29   30 ar
  47   29   49 1
  48   30   31 ar
  49   30   50 1
  50   31   51 1
  51   32   33 1
  52   33   34 1
  53   33   52 1
  54   33   53 1
  55   34   35 1
  56   34   36 1
  57   34   54 1
  58   35   36 1
  59   35   55 1
  60   35   56 1
  61   36   57 1
  62   36   58 1

#	End of record

