#	Name: ASD03090740
#	Creating user name:	WinNT
#	Creation time:	15. 06. 2019 20:29

#	Modifying user name:	WinNT
#	Modification time:	15. 06. 2019 20:29

#	Program:	/corina/corina34_cracker 3.40 0067  02.08.2006

@<TRIPOS>MOLECULE
ASD03090740
  32   33    0    0    0
SMALL
NO_CHARGES


@<TRIPOS>ATOM
   1 N1            -0.0162     1.3436     0.0094 N.am    
   2 C2             0.0199     0.1478     0.6302 C.2     
   3 O3             1.0736    -0.2847     1.0559 O.2     
   4 N4            -1.1119    -0.5686     0.7791 N.am    
   5 S5            -2.4192    -2.8297     1.6870 S.3     
   6 C6            -1.0747    -1.8024     1.4196 C.2     
   7 N7            -0.0145    -2.3672     1.9140 N.2     
   8 N8            -0.1540    -3.4944     2.4652 N.2     
   9 C9            -1.3522    -3.9852     2.4857 C.2     
  10 C10           -1.7616    -5.3059     3.0849 C.3     
  11 F11           -0.6627    -5.8877     3.7263 F       
  12 F12           -2.7875    -5.0988     4.0133 F       
  13 F13           -2.2147    -6.1574     2.0716 F       
  14 C14            1.1454     2.1280    -0.0712 C.ar    
  15 C15            1.0444     3.5116    -0.1999 C.ar    
  16 C16            2.1912     4.2832    -0.2787 C.ar    
  17 C17            3.4396     3.6767    -0.2293 C.ar    
  18 C18            3.5375     2.2976    -0.1014 C.ar    
  19 C19            2.3935     1.5267    -0.0169 C.ar    
  20 O20           -0.1789     4.1033    -0.2485 O.3     
  21 C21           -0.2067     5.5258    -0.3813 C.3     
  22 N22            4.5990     4.4556    -0.3089 N.pl3   
  23 H23           -0.8437     1.6604    -0.3851 H       
  24 H24           -1.9525    -0.2236     0.4395 H       
  25 H25            2.1151     5.3559    -0.3789 H       
  26 H26            4.5089     1.8271    -0.0635 H       
  27 H27            2.4718     0.4546     0.0870 H       
  28 H28           -1.2412     5.8681    -0.4076 H       
  29 H29            0.3048     5.9800     0.4674 H       
  30 H30            0.2952     5.8144    -1.3048 H       
  31 H31            4.5309     5.4190    -0.3985 H       
  32 H32            5.4710     4.0321    -0.2744 H       
@<TRIPOS>BOND
   1    1    2 am
   2    1   14 1
   3    1   23 1
   4    2    3 2
   5    2    4 am
   6    4    6 1
   7    4   24 1
   8    5    6 1
   9    5    9 1
  10    6    7 2
  11    7    8 1
  12    8    9 2
  13    9   10 1
  14   10   11 1
  15   10   12 1
  16   10   13 1
  17   14   15 ar
  18   14   19 ar
  19   15   16 ar
  20   15   20 1
  21   16   17 ar
  22   16   25 1
  23   17   18 ar
  24   17   22 1
  25   18   19 ar
  26   18   26 1
  27   19   27 1
  28   20   21 1
  29   21   28 1
  30   21   29 1
  31   21   30 1
  32   22   31 1
  33   22   32 1

#	End of record

