#	Name: ASD01813126
#	Creating user name:	WinNT
#	Creation time:	15. 06. 2019 19:29

#	Modifying user name:	WinNT
#	Modification time:	15. 06. 2019 19:29

#	Program:	/corina/corina34_cracker 3.40 0067  02.08.2006

@<TRIPOS>MOLECULE
ASD01813126
  62   65    0    0    0
SMALL
NO_CHARGES


@<TRIPOS>ATOM
   1 C1             4.6778     4.4628    -3.7230 C.2     
   2 C2             4.2067     3.1548    -3.8993 C.2     
   3 C3             4.9394     2.1073    -3.4228 C.2     
   4 C4             6.1542     2.3577    -2.7632 C.2     
   5 N5             6.5902     3.6452    -2.6048 N.am    
   6 C6             5.8496     4.6841    -3.0855 C.2     
   7 C7             6.9090     1.2829    -2.2726 C.2     
   8 C8             8.0903     1.5152    -1.6300 C.2     
   9 C9             8.5358     2.8404    -1.4693 C.2     
  10 C10            7.7540     3.8998    -1.9735 C.2     
  11 O11            8.1326     5.0512    -1.8390 O.2     
  12 C12            9.7997     3.1167    -0.7830 C.2     
  13 O13           10.2212     4.3892    -0.6322 O.3     
  14 O14           10.4695     2.1987    -0.3490 O.2     
  15 C15            6.4154    -0.1293    -2.4543 C.3     
  16 N16            7.0226    -0.7089    -3.6599 N.3     
  17 C17            6.7560    -2.1506    -3.7423 C.3     
  18 C18            7.5216    -2.7454    -4.9264 C.3     
  19 C19            7.0770    -2.0506    -6.2164 C.3     
  20 C20            7.3207    -0.5446    -6.0857 C.3     
  21 C21            6.5608    -0.0135    -4.8680 C.3     
  22 C22            7.2048    -2.8179    -2.4679 C.ar    
  23 C23            6.4386    -3.8238    -1.9086 C.ar    
  24 C24            6.8479    -4.4371    -0.7404 C.ar    
  25 C25            8.0288    -4.0429    -0.1283 C.ar    
  26 C26            8.7959    -3.0334    -0.6914 C.ar    
  27 C27            8.3851    -2.4271    -1.8628 C.ar    
  28 O28            8.4334    -4.6444     1.0212 O.3     
  29 C29            9.7155    -4.2731     1.5313 C.3     
  30 C30            9.7057    -2.7893     1.9046 C.3     
  31 C31           10.0322    -5.1092     2.7728 C.3     
  32 C32           10.7815    -4.5230     0.4625 C.3     
  33 H33            4.1052     5.2966    -4.1015 H       
  34 H34            3.2707     2.9774    -4.4081 H       
  35 H35            4.5883     1.0941    -3.5512 H       
  36 H36            6.2029     5.6963    -2.9550 H       
  37 H37            8.6762     0.6918    -1.2490 H       
  38 H38           11.0616     4.5218    -0.1726 H       
  39 H39            6.6926    -0.7258    -1.5852 H       
  40 H40            5.3306    -0.1242    -2.5605 H       
  41 H41            5.6874    -2.3149    -3.8813 H       
  42 H42            8.5912    -2.5936    -4.7813 H       
  43 H43            7.3112    -3.8126    -4.9967 H       
  44 H44            7.6509    -2.4409    -7.0568 H       
  45 H45            6.0155    -2.2348    -6.3821 H       
  46 H46            8.3871    -0.3581    -5.9589 H       
  47 H47            6.9666    -0.0393    -6.9843 H       
  48 H48            5.4932    -0.1879    -5.0017 H       
  49 H49            6.7438     1.0560    -4.7639 H       
  50 H50            5.5191    -4.1300    -2.3853 H       
  51 H51            6.2488    -5.2225    -0.3037 H       
  52 H52            9.7156    -2.7248    -0.2169 H       
  53 H53            8.9818    -1.6412    -2.3016 H       
  54 H54            9.2462    -2.6644     2.8851 H       
  55 H55           10.7290    -2.4149     1.9325 H       
  56 H56            9.1349    -2.2316     1.1621 H       
  57 H57           10.0392    -6.1663     2.5069 H       
  58 H58           11.0102    -4.8260     3.1619 H       
  59 H59            9.2728    -4.9311     3.5342 H       
  60 H60           10.4524    -4.0973    -0.4854 H       
  61 H61           11.7174    -4.0539     0.7661 H       
  62 H62           10.9340    -5.5959     0.3455 H       
@<TRIPOS>BOND
   1    1    2 1
   2    1    6 2
   3    1   33 1
   4    2    3 2
   5    2   34 1
   6    3    4 1
   7    3   35 1
   8    4    5 1
   9    4    7 2
  10    5    6 1
  11    5   10 am
  12    6   36 1
  13    7    8 1
  14    7   15 1
  15    8    9 2
  16    8   37 1
  17    9   10 1
  18    9   12 1
  19   10   11 2
  20   12   13 1
  21   12   14 2
  22   13   38 1
  23   15   16 1
  24   15   39 1
  25   15   40 1
  26   16   17 1
  27   16   21 1
  28   17   18 1
  29   17   22 1
  30   17   41 1
  31   18   19 1
  32   18   42 1
  33   18   43 1
  34   19   20 1
  35   19   44 1
  36   19   45 1
  37   20   21 1
  38   20   46 1
  39   20   47 1
  40   21   48 1
  41   21   49 1
  42   22   23 ar
  43   22   27 ar
  44   23   24 ar
  45   23   50 1
  46   24   25 ar
  47   24   51 1
  48   25   26 ar
  49   25   28 1
  50   26   27 ar
  51   26   52 1
  52   27   53 1
  53   28   29 1
  54   29   30 1
  55   29   31 1
  56   29   32 1
  57   30   54 1
  58   30   55 1
  59   30   56 1
  60   31   57 1
  61   31   58 1
  62   31   59 1
  63   32   60 1
  64   32   61 1
  65   32   62 1

#	End of record

