#	Name: ASD05430627
#	Creating user name:	WinNT
#	Creation time:	15. 06. 2019 21:00

#	Modifying user name:	WinNT
#	Modification time:	15. 06. 2019 21:00

#	Program:	/corina/corina34_cracker 3.40 0067  02.08.2006

@<TRIPOS>MOLECULE
ASD05430627
  34   36    0    0    0
SMALL
NO_CHARGES


@<TRIPOS>ATOM
   1 C1            -0.0168     1.3862     0.0097 C.ar    
   2 C2             0.0021    -0.0041     0.0020 C.ar    
   3 C3             1.2145    -0.6798    -0.0132 C.ar    
   4 C4             2.4011     0.0275    -0.0203 C.ar    
   5 C5             2.3868     1.4102    -0.0123 C.ar    
   6 C6             1.1812     2.0940     0.0020 C.ar    
   7 C7             3.6850     2.1755    -0.0191 C.3     
   8 C8             4.5013     1.8060     1.2211 C.3     
   9 C9             4.4798     1.8204    -1.2772 C.3     
  10 N10           -1.2034    -0.7234     0.0102 N.pl3   
  11 C11           -2.2479    -0.5383     0.8579 C.2     
  12 C12           -1.5506    -1.7410    -0.8398 C.2     
  13 C13           -2.7849    -2.1441    -0.4821 C.2     
  14 N14           -3.1859    -1.3942     0.5549 N.2     
  15 C15           -3.5796    -3.2446    -1.1367 C.3     
  16 O16            0.8990     3.4296     0.0126 O.3     
  17 C17           -0.4731     3.5296     0.4373 C.3     
  18 O18           -1.0510     2.2775     0.0298 O.3     
  19 F19           -0.5486     3.6696     1.8273 F       
  20 F20           -1.1088     4.5999    -0.2012 F       
  21 H21            1.2301    -1.7597    -0.0192 H       
  22 H22            3.3429    -0.5010    -0.0319 H       
  23 H23            3.4762     3.2453    -0.0111 H       
  24 H24            4.7101     0.7362     1.2132 H       
  25 H25            5.4403     2.3595     1.2162 H       
  26 H26            3.9351     2.0590     2.1175 H       
  27 H27            4.6886     0.7506    -1.2852 H       
  28 H28            3.8983     2.0836    -2.1607 H       
  29 H29            5.4188     2.3739    -1.2821 H       
  30 H30           -2.2947     0.1941     1.6502 H       
  31 H31           -0.9499    -2.1424    -1.6426 H       
  32 H32           -3.3602    -4.1926    -0.6456 H       
  33 H33           -4.6438    -3.0268    -1.0472 H       
  34 H34           -3.3095    -3.3103    -2.1906 H       
@<TRIPOS>BOND
   1    1    2 ar
   2    1    6 ar
   3    1   18 1
   4    2    3 ar
   5    2   10 1
   6    3    4 ar
   7    3   21 1
   8    4    5 ar
   9    4   22 1
  10    5    6 ar
  11    5    7 1
  12    6   16 1
  13    7    8 1
  14    7    9 1
  15    7   23 1
  16    8   24 1
  17    8   25 1
  18    8   26 1
  19    9   27 1
  20    9   28 1
  21    9   29 1
  22   10   11 1
  23   10   12 1
  24   11   14 2
  25   11   30 1
  26   12   13 2
  27   12   31 1
  28   13   14 1
  29   13   15 1
  30   15   32 1
  31   15   33 1
  32   15   34 1
  33   16   17 1
  34   17   18 1
  35   17   19 1
  36   17   20 1

#	End of record

