#	Name: ASD09116100
#	Creating user name:	WinNT
#	Creation time:	15. 06. 2019 21:20

#	Modifying user name:	WinNT
#	Modification time:	15. 06. 2019 21:20

#	Program:	/corina/corina34_cracker 3.40 0067  02.08.2006

@<TRIPOS>MOLECULE
ASD09116100
  84   90    0    0    0
SMALL
NO_CHARGES


@<TRIPOS>ATOM
   1 C1             0.0191     1.3243     0.0228 C.ar    
   2 N2             0.1144    -0.0485     0.2623 N.pl3   
   3 N3             1.1019    -0.9204    -0.2237 N.2     
   4 C4             0.8187    -2.1149     0.2379 C.2     
   5 N5            -0.2892    -2.0422     0.9851 N.2     
   6 C6            -0.7235    -0.8005     1.0138 C.2     
   7 N7            -1.8422    -0.3459     1.6858 N.pl3   
   8 N8             1.5537    -3.2742    -0.0101 N.pl3   
   9 C9             1.1550     2.0525    -0.2954 C.ar    
  10 N10           -1.1503     1.9298     0.0930 N.ar    
  11 C11           -1.3130     3.2251    -0.1217 C.ar    
  12 C12           -0.2374     4.0278    -0.4238 C.ar    
  13 C13            1.0323     3.4213    -0.5238 C.ar    
  14 C14            1.0857    -4.5115     0.4491 C.ar    
  15 C15           -0.2803    -4.7427     0.5517 C.ar    
  16 C16           -0.7418    -5.9640     1.0049 C.ar    
  17 C17            0.1620    -6.9607     1.3578 C.ar    
  18 C18            1.5260    -6.7282     1.2548 C.ar    
  19 C19            1.9868    -5.5089     0.7963 C.ar    
  20 C20           -2.7140     3.7679    -0.0248 C.3     
  21 C21           -3.3345     3.9531    -1.4121 C.3     
  22 C22           -2.4782     4.8224    -2.3362 C.3     
  23 C23           -2.5893     6.1050    -1.5282 C.3     
  24 C24           -1.5475     6.3504    -0.4520 C.3     
  25 C25           -0.2967     5.5099    -0.6556 C.3     
  26 C26            2.2354     4.2162    -0.8734 C.ar    
  27 C27            2.5990     5.3134    -0.0951 C.ar    
  28 C28            3.0091     3.8649    -1.9777 C.ar    
  29 C29            4.1275     4.6076    -2.2980 C.ar    
  30 C30            4.4808     5.6989    -1.5250 C.ar    
  31 C31            3.7194     6.0490    -0.4245 C.ar    
  32 F32           -2.0700    -6.1896     1.1054 F       
  33 N33           -0.3050    -8.1993     1.8179 N.3     
  34 C34            0.1508    -9.2901     0.9469 C.3     
  35 C35           -0.4944   -10.6042     1.3928 C.3     
  36 C36           -0.1062   -10.8904     2.8461 C.3     
  37 C37           -0.5492    -9.7173     3.7248 C.3     
  38 C38            0.0975    -8.4289     3.2113 C.3     
  39 N39           -0.7698   -12.1205     3.2983 N.3     
  40 C40           -0.3227   -13.2828     2.5090 C.3     
  41 C41            0.2430   -14.3196     3.5022 C.3     
  42 C42           -0.4342   -13.9264     4.8414 C.3     
  43 C43           -0.4845   -12.3825     4.7251 C.3     
  44 H44           -2.3868    -0.9657     2.1958 H       
  45 H45           -2.0828     0.5930     1.6474 H       
  46 H46            2.3890    -3.2233    -0.5005 H       
  47 H47            2.1179     1.5680    -0.3658 H       
  48 H48           -0.9813    -3.9682     0.2778 H       
  49 H49            2.2277    -7.5019     1.5292 H       
  50 H50            3.0486    -5.3287     0.7163 H       
  51 H51           -3.3266     3.0363     0.5227 H       
  52 H52           -2.7357     4.6944     0.5301 H       
  53 H53           -3.4555     2.9721    -1.8715 H       
  54 H54           -4.3147     4.4115    -1.3017 H       
  55 H55           -1.4572     4.4560    -2.4167 H       
  56 H56           -2.9364     4.9225    -3.3249 H       
  57 H57           -2.5530     6.9464    -2.2313 H       
  58 H58           -3.5785     6.1333    -1.0615 H       
  59 H59           -1.2544     7.4122    -0.4922 H       
  60 H60           -1.9626     6.1765     0.5375 H       
  61 H61            0.4680     5.9616    -0.0079 H       
  62 H62            0.0387     5.6907    -1.6819 H       
  63 H63            2.0050     5.5879     0.7641 H       
  64 H64            2.7344     3.0128    -2.5817 H       
  65 H65            4.7281     4.3359    -3.1535 H       
  66 H66            5.3567     6.2773    -1.7792 H       
  67 H67            3.9995     6.9023     0.1753 H       
  68 H68           -0.1352    -9.0762    -0.0829 H       
  69 H69            1.2353    -9.3776     1.0117 H       
  70 H70           -1.5785   -10.5222     1.3151 H       
  71 H71           -0.1437   -11.4163     0.7558 H       
  72 H72            0.9747   -11.0111     2.9174 H       
  73 H73           -1.6342    -9.6213     3.6838 H       
  74 H74           -0.2378    -9.8957     4.7541 H       
  75 H75            1.1823    -8.5204     3.2656 H       
  76 H76           -0.2272    -7.5895     3.8262 H       
  77 H77           -1.1667   -13.7101     1.9675 H       
  78 H78            0.4545   -12.9783     1.8081 H       
  79 H79           -0.0417   -15.3300     3.2084 H       
  80 H80            1.3267   -14.2299     3.5773 H       
  81 H81           -1.4380   -14.3458     4.9093 H       
  82 H82            0.1743   -14.2343     5.6918 H       
  83 H83            0.4755   -11.9493     5.0060 H       
  84 H84           -1.2809   -11.9806     5.3514 H       
@<TRIPOS>BOND
   1    1    2 1
   2    1    9 ar
   3    1   10 ar
   4    2    3 1
   5    2    6 1
   6    3    4 2
   7    4    5 1
   8    4    8 1
   9    5    6 2
  10    6    7 1
  11    7   44 1
  12    7   45 1
  13    8   14 1
  14    8   46 1
  15    9   13 ar
  16    9   47 1
  17   10   11 ar
  18   11   12 ar
  19   11   20 1
  20   12   13 ar
  21   12   25 1
  22   13   26 1
  23   14   15 ar
  24   14   19 ar
  25   15   16 ar
  26   15   48 1
  27   16   17 ar
  28   16   32 1
  29   17   18 ar
  30   17   33 1
  31   18   19 ar
  32   18   49 1
  33   19   50 1
  34   20   21 1
  35   20   51 1
  36   20   52 1
  37   21   22 1
  38   21   53 1
  39   21   54 1
  40   22   23 1
  41   22   55 1
  42   22   56 1
  43   23   24 1
  44   23   57 1
  45   23   58 1
  46   24   25 1
  47   24   59 1
  48   24   60 1
  49   25   61 1
  50   25   62 1
  51   26   27 ar
  52   26   28 ar
  53   27   31 ar
  54   27   63 1
  55   28   29 ar
  56   28   64 1
  57   29   30 ar
  58   29   65 1
  59   30   31 ar
  60   30   66 1
  61   31   67 1
  62   33   34 1
  63   33   38 1
  64   34   35 1
  65   34   68 1
  66   34   69 1
  67   35   36 1
  68   35   70 1
  69   35   71 1
  70   36   37 1
  71   36   39 1
  72   36   72 1
  73   37   38 1
  74   37   73 1
  75   37   74 1
  76   38   75 1
  77   38   76 1
  78   39   40 1
  79   39   43 1
  80   40   41 1
  81   40   77 1
  82   40   78 1
  83   41   42 1
  84   41   79 1
  85   41   80 1
  86   42   43 1
  87   42   81 1
  88   42   82 1
  89   43   83 1
  90   43   84 1

#	End of record

