#	Name: ASD05233001
#	Creating user name:	WinNT
#	Creation time:	15. 06. 2019 20:57

#	Modifying user name:	WinNT
#	Modification time:	15. 06. 2019 20:57

#	Program:	/corina/corina34_cracker 3.40 0067  02.08.2006

@<TRIPOS>MOLECULE
ASD05233001
  21   22    0    0    0
SMALL
NO_CHARGES


@<TRIPOS>ATOM
   1 C1            -0.0162     1.3461     0.0094 C.2     
   2 C2             0.0021    -0.0041     0.0020 C.2     
   3 C3             1.3460    -0.4127    -0.0130 C.2     
   4 C4             2.1129     0.7135    -0.0143 C.2     
   5 N5             1.2714     1.7960    -0.0004 N.pl3   
   6 C6             3.5905     0.7600    -0.0274 C.ar    
   7 C7             4.2574     1.7128    -0.8067 C.ar    
   8 C8             5.6420     1.7488    -0.8121 C.ar    
   9 C9             6.3617     0.8470    -0.0505 C.ar    
  10 C10            5.7060    -0.0963     0.7212 C.ar    
  11 C11            4.3271    -0.1415     0.7412 C.ar    
  12 O12            3.5493     2.5984    -1.5551 O.3     
  13 H13           -0.9011     1.9652     0.0172 H       
  14 H14           -0.8612    -0.6530     0.0073 H       
  15 H15            1.7050    -1.4312    -0.0216 H       
  16 H16            1.5460     2.7264     0.0019 H       
  17 H17            6.1600     2.4822    -1.4122 H       
  18 H18            7.4412     0.8787    -0.0581 H       
  19 H19            6.2758    -0.7972     1.3132 H       
  20 H20            3.8189    -0.8788     1.3448 H       
  21 H21            3.3319     3.4191    -1.0923 H       
@<TRIPOS>BOND
   1    1    2 2
   2    1    5 1
   3    1   13 1
   4    2    3 1
   5    2   14 1
   6    3    4 2
   7    3   15 1
   8    4    5 1
   9    4    6 1
  10    5   16 1
  11    6    7 ar
  12    6   11 ar
  13    7    8 ar
  14    7   12 1
  15    8    9 ar
  16    8   17 1
  17    9   10 ar
  18    9   18 1
  19   10   11 ar
  20   10   19 1
  21   11   20 1
  22   12   21 1

#	End of record

