#	Name: ASD01230087
#	Creating user name:	WinNT
#	Creation time:	15. 06. 2019 19:11

#	Modifying user name:	WinNT
#	Modification time:	15. 06. 2019 19:11

#	Program:	/corina/corina34_cracker 3.40 0067  02.08.2006

@<TRIPOS>MOLECULE
ASD01230087
  46   49    0    0    0
SMALL
NO_CHARGES


@<TRIPOS>ATOM
   1 C1            -0.0168     1.3907     0.0097 C.ar    
   2 C2             0.0021    -0.0041     0.0020 C.ar    
   3 C3            -1.2686    -0.7650     0.0096 C.2     
   4 N4            -2.4247    -0.1224     0.0236 N.2     
   5 C5            -3.5768    -0.7918     0.0306 C.2     
   6 N6            -3.5933    -2.1625     0.0234 N.pl3   
   7 C7            -2.4159    -2.8576     0.0092 C.2     
   8 C8            -1.2466    -2.1770    -0.0040 C.2     
   9 C9             1.2225    -0.6793    -0.0133 C.ar    
  10 C10            2.4029     0.0352    -0.0207 C.ar    
  11 C11            2.3776     1.4185    -0.0130 C.ar    
  12 C12            1.1702     2.0939     0.0021 C.ar    
  13 C13           -4.9194    -0.3714     0.0444 C.2     
  14 C14           -5.7127    -1.5292     0.0450 C.2     
  15 N15           -4.9293    -2.5785     0.0327 N.2     
  16 C16           -5.3878     0.9818     0.0561 C.1     
  17 C17           -5.7718     2.0911     0.0658 C.1     
  18 C18           -6.2403     3.4443     0.0775 C.ar    
  19 C19           -7.6140     3.7235     0.0907 C.ar    
  20 C20           -5.3355     4.5103     0.0818 C.ar    
  21 N21           -5.7674     5.7538     0.0934 N.ar    
  22 C22           -7.0544     6.0450     0.1010 C.ar    
  23 C23           -8.0134     5.0479     0.1022 C.ar    
  24 S24           -9.7263     5.4607     0.1124 S.o2    
  25 N25          -10.2108     5.5814    -1.4665 N.am    
  26 O26          -10.4064     4.3378     0.6561 O.2     
  27 O27           -9.8208     6.7676     0.6622 O.2     
  28 C28           -2.4206    -4.3645     0.0017 C.3     
  29 F29           -1.1032    -4.8350    -0.0127 F       
  30 F30           -3.0711    -4.8346     1.1476 F       
  31 F31           -3.0920    -4.8231    -1.1369 F       
  32 C32            3.6705     2.1927    -0.0212 C.3     
  33 F33            4.0580     2.4394    -1.3427 F       
  34 F34            3.4901     3.4087     0.6466 F       
  35 F35            4.6636     1.4487     0.6248 F       
  36 H36           -0.9587     1.9190     0.0170 H       
  37 H37           -0.3063    -2.7080    -0.0158 H       
  38 H38            1.2436    -1.7590    -0.0189 H       
  39 H39            3.3485    -0.4864    -0.0322 H       
  40 H40            1.1569     3.1738     0.0077 H       
  41 H41           -6.7925    -1.5512     0.0542 H       
  42 H42           -8.3416     2.9253     0.0916 H       
  43 H43           -4.2739     4.3119     0.0758 H       
  44 H44           -7.3644     7.0795     0.1109 H       
  45 H45           -9.5740     5.4297    -2.1822 H       
  46 H46          -11.1315     5.8039    -1.6756 H       
@<TRIPOS>BOND
   1    1    2 ar
   2    1   12 ar
   3    1   36 1
   4    2    3 1
   5    2    9 ar
   6    3    4 2
   7    3    8 1
   8    4    5 1
   9    5    6 1
  10    5   13 2
  11    6    7 1
  12    6   15 1
  13    7   28 1
  14    7    8 2
  15    8   37 1
  16    9   10 ar
  17    9   38 1
  18   10   11 ar
  19   10   39 1
  20   11   32 1
  21   11   12 ar
  22   12   40 1
  23   13   14 1
  24   13   16 1
  25   14   15 2
  26   14   41 1
  27   16   17 3
  28   17   18 1
  29   18   19 ar
  30   18   20 ar
  31   19   23 ar
  32   19   42 1
  33   20   21 ar
  34   20   43 1
  35   21   22 ar
  36   22   23 ar
  37   22   44 1
  38   23   24 1
  39   24   25 am
  40   24   26 2
  41   24   27 2
  42   25   45 1
  43   25   46 1
  44   28   29 1
  45   28   30 1
  46   28   31 1
  47   32   33 1
  48   32   34 1
  49   32   35 1

#	End of record

