#	Name: ASD01840370
#	Creating user name:	WinNT
#	Creation time:	15. 06. 2019 19:37

#	Modifying user name:	WinNT
#	Modification time:	15. 06. 2019 19:37

#	Program:	/corina/corina34_cracker 3.40 0067  02.08.2006

@<TRIPOS>MOLECULE
ASD01840370
  52   56    0    0    0
SMALL
NO_CHARGES


@<TRIPOS>ATOM
   1 C1             0.9303     1.2009    -2.0712 C.ar    
   2 C2             1.1680    -0.1002    -2.4563 C.ar    
   3 N3             2.2176    -0.7521    -1.9861 N.ar    
   4 N4             3.0496    -0.2234    -1.1685 N.ar    
   5 C5             1.8368     1.8032    -1.1692 C.ar    
   6 C6             1.8421     3.1367    -0.5967 C.2     
   7 C7             2.9191     1.0301    -0.7279 C.ar    
   8 S8             3.9153     1.9650     0.3784 S.3     
   9 C9             2.8800     3.3729     0.2434 C.2     
  10 C10           -0.2578     1.9618    -2.6009 C.3     
  11 C11            0.2282    -0.7830    -3.4163 C.3     
  12 N12            0.8710     4.0864    -0.8840 N.pl3   
  13 C13            3.1067     4.6365     0.9433 C.2     
  14 O14            2.3345     5.5650     0.7889 O.2     
  15 N15            4.1705     4.7734     1.7595 N.am    
  16 C16            4.7239     5.8395     2.6081 C.3     
  17 C17            5.2850     3.9203     2.1986 C.3     
  18 C18            6.1066     5.2020     2.4137 C.3     
  19 N19            6.8216     5.6693     1.2235 N.am    
  20 S20            8.4751     5.7597     1.2331 S.o2    
  21 C21            9.0864     4.1154     1.3979 C.ar    
  22 C22            9.7621     3.7452     2.5207 C.ar    
  23 C23           10.2510     2.4488     2.6660 C.ar    
  24 C24           10.0685     1.5160     1.6917 C.ar    
  25 C25            9.3760     1.8599     0.5179 C.ar    
  26 C26            8.8746     3.1776     0.3749 C.ar    
  27 C27            8.1769     3.5187    -0.7994 C.ar    
  28 C28            8.0092     2.5548    -1.7522 C.ar    
  29 C29            8.5230     1.2762    -1.5459 C.ar    
  30 N30            9.1820     0.9650    -0.4562 N.ar    
  31 O31            8.8602     6.2032    -0.0608 O.2     
  32 O32            8.8327     6.4422     2.4271 O.2     
  33 H33           -1.0767     1.9020    -1.8840 H       
  34 H34            0.0173     3.0057    -2.7520 H       
  35 H35           -0.5732     1.5282    -3.5499 H       
  36 H36            0.5647    -0.6106    -4.4386 H       
  37 H37            0.2162    -1.8538    -3.2134 H       
  38 H38           -0.7761    -0.3782    -3.2913 H       
  39 H39            0.0401     3.8180    -1.3065 H       
  40 H40            1.0234     5.0183    -0.6622 H       
  41 H41            4.6382     6.8330     2.1680 H       
  42 H42            4.3696     5.8023     3.6382 H       
  43 H43            5.0787     3.3771     3.1208 H       
  44 H44            5.6775     3.2787     1.4096 H       
  45 H45            6.7233     5.1895     3.3124 H       
  46 H46            6.3265     5.9258     0.4298 H       
  47 H47            9.9213     4.4662     3.3088 H       
  48 H48           10.7838     2.1797     3.5660 H       
  49 H49           10.4547     0.5156     1.8199 H       
  50 H50            7.7850     4.5148    -0.9425 H       
  51 H51            7.4784     2.7833    -2.6646 H       
  52 H52            8.3828     0.5240    -2.3081 H       
@<TRIPOS>BOND
   1    1    2 ar
   2    1    5 ar
   3    1   10 1
   4    2   11 1
   5    2    3 ar
   6    3    4 ar
   7    4    7 ar
   8    5    7 ar
   9    5    6 1
  10    6    9 2
  11    6   12 1
  12    7    8 1
  13    8    9 1
  14    9   13 1
  15   10   33 1
  16   10   34 1
  17   10   35 1
  18   11   36 1
  19   11   37 1
  20   11   38 1
  21   12   39 1
  22   12   40 1
  23   13   14 2
  24   13   15 am
  25   15   16 1
  26   15   17 1
  27   16   18 1
  28   16   41 1
  29   16   42 1
  30   17   18 1
  31   17   43 1
  32   17   44 1
  33   18   19 1
  34   18   45 1
  35   19   20 am
  36   19   46 1
  37   20   21 1
  38   20   31 2
  39   20   32 2
  40   21   22 ar
  41   21   26 ar
  42   22   23 ar
  43   22   47 1
  44   23   24 ar
  45   23   48 1
  46   24   25 ar
  47   24   49 1
  48   25   30 ar
  49   25   26 ar
  50   26   27 ar
  51   27   28 ar
  52   27   50 1
  53   28   29 ar
  54   28   51 1
  55   29   30 ar
  56   29   52 1

#	End of record

