#	Name: ASD01410845
#	Creating user name:	WinNT
#	Creation time:	15. 06. 2019 19:18

#	Modifying user name:	WinNT
#	Modification time:	15. 06. 2019 19:18

#	Program:	/corina/corina34_cracker 3.40 0067  02.08.2006

@<TRIPOS>MOLECULE
ASD01410845
 117  124    0    0    0
SMALL
NO_CHARGES


@<TRIPOS>ATOM
   1 C1            -0.3193     1.2820     0.7864 C.3     
   2 C2             0.1624    -0.1591     1.0731 C.3     
   3 N3             0.6492    -0.1149     2.4674 N.am    
   4 C4            -0.0663     0.9537     3.1755 C.3     
   5 C5            -0.9725     1.6602     2.1438 C.3     
   6 O6             0.7826     2.1422     0.4895 O.3     
   7 C7            -0.9078     0.3639     4.2779 C.2     
   8 O8            -0.9141    -0.8350     4.4606 O.2     
   9 N9            -1.6533     1.1689     5.0606 N.am    
  10 C10            1.3588    -0.4928     0.1749 C.3     
  11 N11            1.9763    -1.7229     0.6868 N.am    
  12 C12            2.4175    -1.8134     2.0768 C.3     
  13 C13            1.6150    -0.9053     2.9656 C.2     
  14 O14            1.8437    -0.8854     4.1565 O.2     
  15 C15            2.2578    -3.2563     2.5600 C.3     
  16 C16            2.9097    -3.4085     3.9358 C.3     
  17 C17            0.7700    -3.5989     2.6599 C.3     
  18 C18           -2.5368     0.5899     6.0758 C.3     
  19 C19           -3.6010    -0.3420     5.5561 C.2     
  20 N20           -3.7640    -0.5051     4.2282 N.am    
  21 O21           -4.3108    -0.9451     6.3328 O.2     
  22 S22           -5.0133    -1.4284     3.6545 S.o2    
  23 C23           -6.5072    -0.5266     4.1499 C.3     
  24 C24           -1.9295     0.2755     7.4445 C.3     
  25 C25           -2.8877     1.4586     7.2853 C.3     
  26 C26           -7.8578    -1.1870     3.8660 C.3     
  27 C27           -7.3328    -1.1054     5.3008 C.3     
  28 O28           -4.8551    -1.3938     2.2428 O.2     
  29 O29           -4.9061    -2.6490     4.3740 O.2     
  30 C30           -2.4419    -0.9419     8.1700 C.2     
  31 C31           -1.6194    -1.9124     8.4827 C.2     
  32 C32            0.5431     3.1835    -0.3456 C.ar    
  33 C33            1.5618     4.1145    -0.6559 C.ar    
  34 C34           -0.6905     3.3584    -0.9158 C.ar    
  35 C35           -0.9123     4.4425    -1.7761 C.ar    
  36 N36            0.0456     5.3100    -2.0560 N.ar    
  37 C37            1.2699     5.1879    -1.5333 C.ar    
  38 C38           -2.2474     4.6198    -2.3846 C.2     
  39 S39           -3.6384     3.5713    -2.1211 S.3     
  40 C40            2.2797     6.1172    -1.8382 C.ar    
  41 C41            3.5318     5.9668    -1.2849 C.ar    
  42 C42            3.8092     4.9011    -0.4241 C.ar    
  43 C43            2.8476     3.9903    -0.1100 C.ar    
  44 Cl44           1.9506     7.4457    -2.9060 Cl      
  45 O45            4.5086     6.8642    -1.5794 O.3     
  46 C46            5.7861     6.6544    -0.9745 C.3     
  47 N47           -2.5861     5.5796    -3.1974 N.2     
  48 C48           -3.8198     5.5790    -3.6409 C.2     
  49 C49           -4.5979     4.5819    -3.2003 C.2     
  50 C50           -4.3313     6.6358    -4.5857 C.3     
  51 C51           -4.2152     6.1319    -6.0256 C.3     
  52 C52           -5.7971     6.9379    -4.2677 C.3     
  53 S53            2.1740    -3.0213    -0.3218 S.o2    
  54 C54            6.7488     7.7567    -1.4206 C.3     
  55 N55            6.2831     9.0514    -0.9060 N.3     
  56 C56            7.2984    10.0951    -1.1090 C.3     
  57 C57            3.9652    -3.1156    -0.5924 C.3     
  58 O58            1.7263    -4.1314     0.4441 O.2     
  59 C59            6.7499    11.4361    -0.6142 C.3     
  60 O60            6.3679    11.3120     0.7584 O.3     
  61 C61            5.3799    10.3048     0.9922 C.3     
  62 C62            5.9145     8.9523     0.5137 C.3     
  63 O63            1.5083    -2.6405    -1.5180 O.2     
  64 H64           -1.0529     1.2967    -0.0195 H       
  65 H65           -0.6478    -0.8790     0.9573 H       
  66 H66            0.6471     1.6652     3.5911 H       
  67 H67           -0.9557     2.7400     2.2919 H       
  68 H68           -1.9917     1.2782     2.2007 H       
  69 H69           -1.6048     2.1315     4.9519 H       
  70 H70            1.0193    -0.6487    -0.8490 H       
  71 H71            2.0814     0.3228     0.2047 H       
  72 H72            3.4691    -1.5327     2.1363 H       
  73 H73            2.7395    -3.9317     1.8530 H       
  74 H74            3.9696    -3.1644     3.8647 H       
  75 H75            2.4280    -2.7331     4.6429 H       
  76 H76            2.7959    -4.4365     4.2801 H       
  77 H77            0.3056    -3.4904     1.6798 H       
  78 H78            0.6562    -4.6268     3.0042 H       
  79 H79            0.2883    -2.9235     3.3670 H       
  80 H80           -3.1495    -0.0816     3.6085 H       
  81 H81           -6.4504     0.5588     4.0670 H       
  82 H82           -0.8727     0.4995     7.5897 H       
  83 H83           -2.4611     2.4608     7.3260 H       
  84 H84           -3.8883     1.3560     7.7054 H       
  85 H85           -8.6896    -0.5361     3.5967 H       
  86 H86           -7.8487    -2.1633     3.3815 H       
  87 H87           -6.9782    -2.0280     5.7602 H       
  88 H88           -7.8191    -0.4008     5.9754 H       
  89 H89           -3.4871    -1.0144     8.4320 H       
  90 H90           -1.9866    -2.7849     9.0026 H       
  91 H91           -0.5742    -1.8400     8.2206 H       
  92 H92           -1.4891     2.6631    -0.7034 H       
  93 H93            4.7976     4.8008    -0.0006 H       
  94 H94            3.0753     3.1715     0.5565 H       
  95 H95            5.6830     6.6793     0.1103 H       
  96 H96            6.1779     5.6843    -1.2801 H       
  97 H97           -5.6343     4.4250    -3.4604 H       
  98 H98           -3.7398     7.5440    -4.4697 H       
  99 H99           -4.5851     6.8963    -6.7090 H       
 100 H100          -3.1709     5.9167    -6.2521 H       
 101 H101          -4.8067     5.2238    -6.1416 H       
 102 H102          -5.8799     7.2969    -3.2419 H       
 103 H103          -6.1671     7.7023    -4.9511 H       
 104 H104          -6.3887     6.0298    -4.3837 H       
 105 H105           7.7454     7.5483    -1.0314 H       
 106 H106           6.7837     7.7899    -2.5096 H       
 107 H107           8.1984     9.8411    -0.5491 H       
 108 H108           7.5375    10.1688    -2.1699 H       
 109 H109           4.4698    -3.2617     0.3627 H       
 110 H110           4.1892    -3.9529    -1.2534 H       
 111 H111           4.3130    -2.1890    -1.0490 H       
 112 H112           7.5198    12.2018    -0.7099 H       
 113 H113           5.8811    11.7161    -1.2099 H       
 114 H114           5.1589    10.2522     2.0583 H       
 115 H115           4.4713    10.5519     0.4432 H       
 116 H116           5.1434     8.1918     0.6373 H       
 117 H117           6.7924     8.6800     1.0995 H       
@<TRIPOS>BOND
   1    1    2 1
   2    1    6 1
   3    1    5 1
   4    1   64 1
   5    2    3 1
   6    2   10 1
   7    2   65 1
   8    3    4 1
   9    3   13 am
  10    4    5 1
  11    4    7 1
  12    4   66 1
  13    5   67 1
  14    5   68 1
  15    6   32 1
  16    7    8 2
  17    7    9 am
  18    9   18 1
  19    9   69 1
  20   10   11 1
  21   10   70 1
  22   10   71 1
  23   11   12 1
  24   11   53 am
  25   12   13 1
  26   12   15 1
  27   12   72 1
  28   13   14 2
  29   15   16 1
  30   15   17 1
  31   15   73 1
  32   16   74 1
  33   16   75 1
  34   16   76 1
  35   17   77 1
  36   17   78 1
  37   17   79 1
  38   18   19 1
  39   18   24 1
  40   18   25 1
  41   19   20 am
  42   19   21 2
  43   20   22 am
  44   20   80 1
  45   22   23 1
  46   22   28 2
  47   22   29 2
  48   23   26 1
  49   23   27 1
  50   23   81 1
  51   24   25 1
  52   24   30 1
  53   24   82 1
  54   25   83 1
  55   25   84 1
  56   26   27 1
  57   26   85 1
  58   26   86 1
  59   27   87 1
  60   27   88 1
  61   30   31 2
  62   30   89 1
  63   31   90 1
  64   31   91 1
  65   32   33 ar
  66   32   34 ar
  67   33   37 ar
  68   33   43 ar
  69   34   35 ar
  70   34   92 1
  71   35   36 ar
  72   35   38 1
  73   36   37 ar
  74   37   40 ar
  75   38   47 2
  76   38   39 1
  77   39   49 1
  78   40   41 ar
  79   40   44 1
  80   41   42 ar
  81   41   45 1
  82   42   43 ar
  83   42   93 1
  84   43   94 1
  85   45   46 1
  86   46   54 1
  87   46   95 1
  88   46   96 1
  89   47   48 1
  90   48   49 2
  91   48   50 1
  92   49   97 1
  93   50   51 1
  94   50   52 1
  95   50   98 1
  96   51   99 1
  97   51  100 1
  98   51  101 1
  99   52  102 1
 100   52  103 1
 101   52  104 1
 102   53   57 1
 103   53   58 2
 104   53   63 2
 105   54   55 1
 106   54  105 1
 107   54  106 1
 108   55   56 1
 109   55   62 1
 110   56   59 1
 111   56  107 1
 112   56  108 1
 113   57  109 1
 114   57  110 1
 115   57  111 1
 116   59   60 1
 117   59  112 1
 118   59  113 1
 119   60   61 1
 120   61   62 1
 121   61  114 1
 122   61  115 1
 123   62  116 1
 124   62  117 1

#	End of record

