#	Name: ASD06350012
#	Creating user name:	WinNT
#	Creation time:	15. 06. 2019 21:06

#	Modifying user name:	WinNT
#	Modification time:	15. 06. 2019 21:06

#	Program:	/corina/corina34_cracker 3.40 0067  02.08.2006

@<TRIPOS>MOLECULE
ASD06350012
  28   29    0    0    0
SMALL
NO_CHARGES


@<TRIPOS>ATOM
   1 F1             0.0021    -0.0041     0.0020 F       
   2 C2            -0.0162     1.3468     0.0094 C.ar    
   3 C3             1.1740     2.0545     0.0019 C.ar    
   4 C4             1.1574     3.4355     0.0095 C.ar    
   5 C5            -0.0538     4.1142     0.0247 C.ar    
   6 C6            -1.2465     3.4025     0.0322 C.ar    
   7 C7            -1.2256     2.0220     0.0189 C.ar    
   8 C8            -2.5625     4.1366     0.0487 C.3     
   9 N9            -0.0728     5.5147     0.0328 N.am    
  10 C10           -0.0929     6.1885    -1.1434 C.2     
  11 C11           -0.1112     7.5458    -1.1770 C.2     
  12 C12           -0.1097     8.2755     0.0111 C.2     
  13 C13           -0.0895     7.5892     1.2251 C.2     
  14 C14           -0.0763     6.1705     1.2089 C.2     
  15 O15           -0.0587     5.5473     2.2563 O.2     
  16 C16           -0.0872     8.3224     2.4982 C.2     
  17 O17           -0.1030     9.5380     2.4997 O.2     
  18 O18           -0.0677     7.6470     3.6650 O.3     
  19 H19            2.1158     1.5261    -0.0096 H       
  20 H20            2.0859     3.9871     0.0039 H       
  21 H21           -2.1528     1.4683     0.0247 H       
  22 H22           -2.8896     4.3191    -0.9749 H       
  23 H23           -3.3084     3.5336     0.5665 H       
  24 H24           -2.4413     5.0881     0.5665 H       
  25 H25           -0.0940     5.6353    -2.0710 H       
  26 H26           -0.1267     8.0613    -2.1260 H       
  27 H27           -0.1235     9.3552    -0.0084 H       
  28 H28           -0.0670     8.1728     4.4765 H       
@<TRIPOS>BOND
   1    1    2 1
   2    2    3 ar
   3    2    7 ar
   4    3    4 ar
   5    3   19 1
   6    4    5 ar
   7    4   20 1
   8    5    6 ar
   9    5    9 1
  10    6    7 ar
  11    6    8 1
  12    7   21 1
  13    8   22 1
  14    8   23 1
  15    8   24 1
  16    9   10 1
  17    9   14 am
  18   10   11 2
  19   10   25 1
  20   11   12 1
  21   11   26 1
  22   12   13 2
  23   12   27 1
  24   13   14 1
  25   13   16 1
  26   14   15 2
  27   16   17 2
  28   16   18 1
  29   18   28 1

#	End of record

