#	Name: ASD02198879
#	Creating user name:	WinNT
#	Creation time:	15. 06. 2019 20:20

#	Modifying user name:	WinNT
#	Modification time:	15. 06. 2019 20:20

#	Program:	/corina/corina34_cracker 3.40 0067  02.08.2006

@<TRIPOS>MOLECULE
ASD02198879
  57   61    0    0    0
SMALL
NO_CHARGES


@<TRIPOS>ATOM
   1 C1             0.3460     0.3534    -0.0314 C.2     
   2 C2             0.3322    -0.8849     0.5231 C.2     
   3 N3             1.4794    -1.4783     0.9226 N.pl3   
   4 N4             2.6322    -0.9292     0.8102 N.2     
   5 C5             2.7877     0.2696     0.2899 C.2     
   6 C6             1.5975     0.9987    -0.1762 C.2     
   7 C7             1.4046    -2.7558     1.4877 C.ar    
   8 C8             1.9507    -2.9945     2.7483 C.ar    
   9 C9             1.8744    -4.2602     3.3049 C.ar    
  10 C10            1.2549    -5.2878     2.6074 C.ar    
  11 C11            0.7113    -5.0479     1.3514 C.ar    
  12 C12            0.7811    -3.7863     0.7962 C.ar    
  13 C13            4.1315     0.8719     0.1762 C.2     
  14 N14            4.7168     1.3418    -0.9658 N.pl3   
  15 N15            5.9860     1.8268    -0.6263 N.2     
  16 C16            6.1694     1.6624     0.6595 C.2     
  17 C17            5.0286     1.0714     1.2026 C.2     
  18 C18            4.1492     1.3388    -2.2463 C.ar    
  19 C19            3.4681     0.2176    -2.7023 C.ar    
  20 C20            2.9077     0.2149    -3.9652 C.ar    
  21 C21            3.0232     1.3266    -4.7775 C.ar    
  22 C22            3.7028     2.4499    -4.3270 C.ar    
  23 C23            4.2617     2.4584    -3.0589 C.ar    
  24 O24            1.6859     2.1143    -0.6674 O.2     
  25 N25            1.1780    -6.5691     3.1703 N.pl3   
  26 N26            0.9529    -6.8651     4.5209 N.2     
  27 C27            0.9470    -8.1660     4.6629 C.2     
  28 C28            1.1675    -8.7486     3.4110 C.2     
  29 C29            1.3026    -7.7466     2.5020 C.2     
  30 O30            1.5287    -7.8947     1.1716 O.3     
  31 C31            1.5512    -9.2295     0.6620 C.3     
  32 F32            2.5349    -9.9670     1.3295 F       
  33 F33            0.3026    -9.8271     0.8644 F       
  34 O34            3.8160     3.5425    -5.1272 O.3     
  35 C35            3.2114     3.4655    -6.4197 C.3     
  36 F36            1.8373     3.2432    -6.2793 F       
  37 F37            3.4218     4.6667    -7.1053 F       
  38 F38            3.7831     2.4112    -7.1399 F       
  39 O39            2.5572    -1.9868     3.4292 O.3     
  40 C40            3.0942    -2.3039     4.7150 C.3     
  41 H41           -0.5675     0.8293    -0.3560 H       
  42 H42           -0.6073    -1.4030     0.6472 H       
  43 H43            2.2970    -4.4476     4.2810 H       
  44 H44            0.2297    -5.8490     0.8104 H       
  45 H45            0.3578    -3.6023    -0.1802 H       
  46 H46            7.0561     1.9414     1.2094 H       
  47 H47            4.8781     0.8114     2.2400 H       
  48 H48            3.3767    -0.6527    -2.0694 H       
  49 H49            2.3788    -0.6580    -4.3182 H       
  50 H50            2.5844     1.3214    -5.7644 H       
  51 H51            4.7908     3.3315    -2.7066 H       
  52 H52            0.7971    -8.6993     5.5900 H       
  53 H53            1.2183    -9.8071     3.2025 H       
  54 H54            1.7749    -9.2074    -0.4046 H       
  55 H55            2.2942    -2.6571     5.3657 H       
  56 H56            3.8491    -3.0832     4.6113 H       
  57 H57            3.5487    -1.4131     5.1486 H       
@<TRIPOS>BOND
   1    1    2 2
   2    1    6 1
   3    1   41 1
   4    2    3 1
   5    2   42 1
   6    3    4 1
   7    3    7 1
   8    4    5 2
   9    5    6 1
  10    5   13 1
  11    6   24 2
  12    7    8 ar
  13    7   12 ar
  14    8    9 ar
  15    8   39 1
  16    9   10 ar
  17    9   43 1
  18   10   11 ar
  19   10   25 1
  20   11   12 ar
  21   11   44 1
  22   12   45 1
  23   13   14 1
  24   13   17 2
  25   14   15 1
  26   14   18 1
  27   15   16 2
  28   16   17 1
  29   16   46 1
  30   17   47 1
  31   18   19 ar
  32   18   23 ar
  33   19   20 ar
  34   19   48 1
  35   20   21 ar
  36   20   49 1
  37   21   22 ar
  38   21   50 1
  39   22   23 ar
  40   22   34 1
  41   23   51 1
  42   25   26 1
  43   25   29 1
  44   26   27 2
  45   27   28 1
  46   27   52 1
  47   28   29 2
  48   28   53 1
  49   29   30 1
  50   30   31 1
  51   31   32 1
  52   31   33 1
  53   31   54 1
  54   34   35 1
  55   35   36 1
  56   35   37 1
  57   35   38 1
  58   39   40 1
  59   40   55 1
  60   40   56 1
  61   40   57 1

#	End of record

