#	Name: ASD06610069
#	Creating user name:	WinNT
#	Creation time:	15. 06. 2019 21:07

#	Modifying user name:	WinNT
#	Modification time:	15. 06. 2019 21:07

#	Program:	/corina/corina34_cracker 3.40 0067  02.08.2006

@<TRIPOS>MOLECULE
ASD06610069
 244  244    0    0    0
SMALL
NO_CHARGES


@<TRIPOS>ATOM
   1 C1            -4.8861    -5.0497    10.4676 C.2     
   2 O2            -4.5401    -6.0876     9.9442 O.2     
   3 N3            -2.5739    -4.7808    11.1648 N.3     
   4 C4            -3.8504    -4.0793    10.9740 C.3     
   5 C5            -3.6659    -2.9526     9.9555 C.3     
   6 C6            -2.7083    -1.9032    10.5235 C.3     
   7 C7            -2.5238    -0.7766     9.5049 C.3     
   8 N8            -1.6068     0.2282    10.0489 N.pl3   
   9 C9            -1.2879     1.3406     9.3073 C.2     
  10 N10           -1.7060     1.4458     8.0789 N.2     
  11 N11           -0.5235     2.3470     9.8655 N.am    
  12 C12           -7.2051    -5.8394     8.6517 C.2     
  13 O13           -6.2943    -5.3426     8.0236 O.2     
  14 N14           -6.1969    -4.7617    10.5913 N.am    
  15 C15           -7.3075    -5.6117    10.1379 C.3     
  16 C16           -8.6184    -4.8662    10.4655 C.3     
  17 C17           -8.1601    -3.3877    10.5718 C.3     
  18 C18           -6.7547    -3.5450    11.2094 C.3     
  19 C19           -9.3921    -7.1245     6.0196 C.2     
  20 O20          -10.3473    -7.1982     6.7633 O.2     
  21 N21           -8.1255    -6.5950     8.0207 N.am    
  22 C22           -8.0259    -6.8163     6.5759 C.3     
  23 C23           -7.0870    -7.9933     6.3038 C.3     
  24 C24           -5.6883    -7.6617     6.8278 C.3     
  25 C25           -7.6149    -9.2416     7.0139 C.3     
  26 C26          -10.6658    -8.4491     2.8595 C.2     
  27 O27           -9.5498    -8.6089     2.4123 O.2     
  28 N28           -9.5525    -7.3183     4.6955 N.am    
  29 C29          -10.8570    -7.7255     4.1675 C.3     
  30 C30          -11.7256    -6.4862     3.9426 C.3     
  31 C31          -11.4780    -8.4385    -0.1783 C.2     
  32 O32          -11.5576    -7.2740     0.1513 O.2     
  33 N33          -11.7350    -8.9186     2.1866 N.am    
  34 C34          -11.5602    -9.5239     0.8640 C.3     
  35 C35          -12.7508   -10.4350     0.5586 C.3     
  36 C36          -12.7590   -11.5915     1.5247 C.2     
  37 O37          -11.8444   -11.7336     2.3084 O.2     
  38 N38          -13.7828   -12.4680     1.5179 N.am    
  39 C39          -11.6665    -8.2583    -3.8245 C.2     
  40 O40          -12.0067    -9.4185    -3.9200 O.2     
  41 N41          -11.3160    -8.7618    -1.4766 N.am    
  42 C42          -11.2360    -7.7067    -2.4898 C.3     
  43 C43           -9.7951    -7.2016    -2.5875 C.3     
  44 C44          -11.4636    -7.1886    -7.3142 C.2     
  45 O45          -10.7375    -6.2554    -7.0442 O.2     
  46 N46          -11.6736    -7.4622    -4.9121 N.am    
  47 C47          -12.0921    -7.9985    -6.2096 C.3     
  48 C48          -13.6159    -7.9226    -6.3252 C.3     
  49 C49          -14.2530    -8.8431    -5.2823 C.3     
  50 C50          -15.7767    -8.7673    -5.3980 C.3     
  51 N51          -16.3867    -9.6487    -4.3994 N.pl3   
  52 C52          -17.7553    -9.7465    -4.3132 C.2     
  53 N53          -18.5102    -9.0549    -5.1200 N.2     
  54 N54          -18.3278   -10.5736    -3.3761 N.pl3   
  55 C55          -11.8771    -6.7670   -10.9089 C.2     
  56 O56          -12.8052    -7.5411   -11.0111 O.2     
  57 N57          -11.7083    -7.5013    -8.6021 N.am    
  58 C58          -11.0128    -6.7857    -9.6746 C.3     
  59 C59           -9.6926    -7.4931    -9.9871 C.3     
  60 C60           -8.8939    -6.6613   -10.9927 C.3     
  61 C61           -8.4409    -5.3583   -10.3311 C.3     
  62 C62           -7.6679    -7.4539   -11.4505 C.3     
  63 C63          -11.7623    -5.2654   -14.2398 C.2     
  64 O64          -10.5868    -4.9863   -14.1345 O.2     
  65 N65          -11.6189    -5.8901   -11.8992 N.am    
  66 C66          -12.5191    -5.8005   -13.0515 C.3     
  67 C67          -13.6795    -4.8600   -12.7202 C.3     
  68 C68          -14.5213    -5.4652   -11.5951 C.3     
  69 C69          -15.6817    -4.5247   -11.2638 C.3     
  70 N70          -16.4877    -5.1043   -10.1864 N.pl3   
  71 C71          -17.5921    -4.4334    -9.7170 C.2     
  72 N72          -18.3092    -4.9490    -8.7584 N.2     
  73 N73          -17.9401    -3.2186   -10.2586 N.pl3   
  74 C74          -12.6917    -3.9177   -17.5192 C.2     
  75 O75          -13.8286    -4.3400   -17.5270 O.2     
  76 N76          -12.3919    -5.0969   -15.4195 N.am    
  77 C77          -11.6875    -4.4750   -16.5435 C.3     
  78 C78          -10.8217    -5.5231   -17.2455 C.3     
  79 C79          -10.0008    -4.8510   -18.3479 C.3     
  80 C80           -8.9778    -3.9043   -17.7168 C.3     
  81 C81           -9.2709    -5.9199   -19.1639 C.3     
  82 C82          -13.5142    -3.1606   -20.4888 C.2     
  83 O83          -12.8744    -4.1752   -20.6342 O.2     
  84 N84          -12.3264    -2.9498   -18.3831 N.am    
  85 C85          -13.3290    -2.3242   -19.2489 C.3     
  86 C86          -12.8583    -0.9232   -19.6445 C.3     
  87 C87          -12.7900    -0.0375   -18.3988 C.3     
  88 C88          -12.3194     1.3636   -18.7944 C.3     
  89 N89          -12.2539     2.2116   -17.6016 N.pl3   
  90 C90          -11.8535     3.5223   -17.7111 C.2     
  91 N91          -11.5322     4.0104   -18.8762 N.2     
  92 N92          -11.7921     4.3181   -16.5918 N.pl3   
  93 O93          -14.3900    -2.7785   -21.4315 O.3     
  94 C94           -0.1932     2.2971    11.1711 C.2     
  95 O95           -0.4934     1.3284    11.8358 O.2     
  96 C96            7.5711     9.4502    26.6546 C.3     
  97 C97            6.8172     8.2846    26.0111 C.3     
  98 C98            6.5680     8.5923    24.5332 C.3     
  99 C99            5.8141     7.4268    23.8897 C.3     
 100 C100           5.5649     7.7344    22.4119 C.3     
 101 C101           4.8110     6.5689    21.7684 C.3     
 102 C102           4.5618     6.8766    20.2905 C.3     
 103 C103           3.8079     5.7110    19.6470 C.3     
 104 C104           3.5587     6.0187    18.1691 C.3     
 105 C105           2.8048     4.8531    17.5256 C.3     
 106 C106           2.5556     5.1608    16.0477 C.3     
 107 C107           1.8017     3.9953    15.4042 C.3     
 108 C108           1.5525     4.3030    13.9263 C.3     
 109 C109           0.7986     3.1374    13.2828 C.3     
 110 C110           0.5494     3.4451    11.8050 C.3     
 111 H111          -2.6533    -5.4879    11.8802 H       
 112 H112          -2.2471    -5.1792    10.2973 H       
 113 H113          -4.1798    -3.6595    11.9245 H       
 114 H114          -3.2522    -3.3607     9.0333 H       
 115 H115          -4.6304    -2.4895     9.7473 H       
 116 H116          -3.1220    -1.4952    11.4457 H       
 117 H117          -1.7438    -2.3664    10.7317 H       
 118 H118          -2.1101    -1.1846     8.5827 H       
 119 H119          -3.4883    -0.3134     9.2968 H       
 120 H120          -1.2248     0.1084    10.9324 H       
 121 H121          -1.5434     2.2612     7.5794 H       
 122 H122          -0.2247     3.0896     9.3176 H       
 123 H123          -7.2809    -6.5672    10.6619 H       
 124 H124          -9.3431    -4.9884     9.6605 H       
 125 H125          -9.0316    -5.2110    11.4134 H       
 126 H126          -8.0963    -2.9266     9.5862 H       
 127 H127          -8.8222    -2.8195    11.2252 H       
 128 H128          -6.8373    -3.6716    12.2889 H       
 129 H129          -6.1331    -2.6810    10.9744 H       
 130 H130          -8.8539    -6.9924     8.5231 H       
 131 H131          -7.6325    -5.9196     6.0973 H       
 132 H132          -7.0385    -8.1789     5.2308 H       
 133 H133          -5.7185    -7.5741     7.9139 H       
 134 H134          -4.9971    -8.4562     6.5464 H       
 135 H135          -5.3529    -6.7186     6.3964 H       
 136 H136          -8.6114    -9.4778     6.6406 H       
 137 H137          -6.9460   -10.0801     6.8200 H       
 138 H138          -7.6634    -9.0560     8.0869 H       
 139 H139          -8.8042    -7.1882     4.0921 H       
 140 H140         -11.3470    -8.3880     4.8810 H       
 141 H141         -12.6961    -6.7892     3.5498 H       
 142 H142         -11.8638    -5.9629     4.8887 H       
 143 H143         -11.2355    -5.8237     3.2291 H       
 144 H144         -12.6203    -8.8558     2.5780 H       
 145 H145         -10.6414   -10.1101     0.8513 H       
 146 H146         -13.6769    -9.8693     0.6611 H       
 147 H147         -12.6670   -10.8132    -0.4602 H       
 148 H148         -14.5144   -12.3544     0.8911 H       
 149 H149         -13.7882   -13.2124     2.1398 H       
 150 H150         -11.2523    -9.6932    -1.7402 H       
 151 H151         -11.8917    -6.8826    -2.2086 H       
 152 H152          -9.1395    -8.0257    -2.8686 H       
 153 H153          -9.7356    -6.4165    -3.3413 H       
 154 H154          -9.4837    -6.8026    -1.6221 H       
 155 H155         -11.4016    -6.5343    -4.8357 H       
 156 H156         -11.7726    -9.0372    -6.2936 H       
 157 H157         -13.9428    -6.8972    -6.1528 H       
 158 H158         -13.9207    -8.2382    -7.3230 H       
 159 H159         -13.9261    -9.8686    -5.4547 H       
 160 H160         -13.9482    -8.5275    -4.2845 H       
 161 H161         -16.1036    -7.7419    -5.2256 H       
 162 H162         -16.0815    -9.0829    -6.3958 H       
 163 H163         -15.8250   -10.1634    -3.7990 H       
 164 H164         -19.4758    -9.1238    -5.0592 H       
 165 H165         -17.7661   -11.0883    -2.7757 H       
 166 H166         -19.2934   -10.6426    -3.3153 H       
 167 H167         -12.3450    -8.2003    -8.8189 H       
 168 H168         -10.8105    -5.7627    -9.3571 H       
 169 H169          -9.1152    -7.6067    -9.0696 H       
 170 H170          -9.8985    -8.4760   -10.4109 H       
 171 H171          -9.5211    -6.4324   -11.8543 H       
 172 H172          -7.9333    -4.7345   -11.0669 H       
 173 H173          -9.3096    -4.8272    -9.9419 H       
 174 H174          -7.7570    -5.5848    -9.5131 H       
 175 H175          -7.9907    -8.3823   -11.9219 H       
 176 H176          -7.0989    -6.8614   -12.1669 H       
 177 H177          -7.0408    -7.6829   -10.5889 H       
 178 H178         -10.8369    -5.3183   -11.8491 H       
 179 H179         -12.9096    -6.7909   -13.2854 H       
 180 H180         -13.2854    -3.8953   -12.4005 H       
 181 H181         -14.3006    -4.7234   -13.6055 H       
 182 H182         -14.9154    -6.4299   -11.9148 H       
 183 H183         -13.9002    -5.6018   -10.7098 H       
 184 H184         -15.2876    -3.5600   -10.9441 H       
 185 H185         -16.3028    -4.3882   -12.1490 H       
 186 H186         -16.2422    -5.9613    -9.8042 H       
 187 H187         -19.0884    -4.4757    -8.4272 H       
 188 H188         -17.4065    -2.8349   -10.9720 H       
 189 H189         -18.7193    -2.7453    -9.9274 H       
 190 H190         -13.3114    -5.3874   -15.5244 H       
 191 H191         -11.0539    -3.6688   -16.1739 H       
 192 H192         -10.1496    -5.9834   -16.5213 H       
 193 H193         -11.4619    -6.2883   -17.6846 H       
 194 H194         -10.6646    -4.2852   -19.0016 H       
 195 H195          -8.3288    -3.5004   -18.4938 H       
 196 H196          -9.4986    -3.0873   -17.2174 H       
 197 H197          -8.3773    -4.4508   -16.9896 H       
 198 H198          -9.9997    -6.5943   -19.6135 H       
 199 H199          -8.6860    -5.4411   -19.9492 H       
 200 H200          -8.6071    -6.4857   -18.5102 H       
 201 H201         -11.3996    -2.6675   -18.4316 H       
 202 H202         -14.2762    -2.2519   -18.7146 H       
 203 H203         -11.8700    -0.9869   -20.0997 H       
 204 H204         -13.5601    -0.4923   -20.3586 H       
 205 H205         -13.7784     0.0263   -17.9436 H       
 206 H206         -12.0882    -0.4684   -17.6847 H       
 207 H207         -11.3310     1.2998   -19.2495 H       
 208 H208         -13.0211     1.7944   -19.5085 H       
 209 H209         -12.4931     1.8484   -16.7345 H       
 210 H210         -11.2497     4.9351   -18.9535 H       
 211 H211         -12.0313     3.9549   -15.7247 H       
 212 H212         -11.5097     5.2429   -16.6691 H       
 213 H213         -14.4741    -3.3473   -22.2090 H       
 214 H214           8.5253     9.5903    26.1467 H       
 215 H215           6.9764    10.3595    26.5681 H       
 216 H216           7.7487     9.2310    27.7075 H       
 217 H217           7.4119     7.3753    26.0976 H       
 218 H218           5.8630     8.1444    26.5190 H       
 219 H219           5.9733     9.5017    24.4467 H       
 220 H220           7.5222     8.7325    24.0253 H       
 221 H221           6.4088     6.5174    23.9763 H       
 222 H222           4.8599     7.2866    24.3976 H       
 223 H223           4.9702     8.6438    22.3253 H       
 224 H224           6.5191     7.8746    21.9040 H       
 225 H225           5.4057     5.6595    21.8549 H       
 226 H226           3.8568     6.4287    22.2762 H       
 227 H227           3.9671     7.7859    20.2039 H       
 228 H228           5.5160     7.0167    19.7826 H       
 229 H229           4.4026     4.8016    19.7335 H       
 230 H230           2.8537     5.5708    20.1549 H       
 231 H231           2.9640     6.9281    18.0826 H       
 232 H232           4.5129     6.1589    17.6612 H       
 233 H233           3.3995     3.9438    17.6121 H       
 234 H234           1.8506     4.7130    18.0335 H       
 235 H235           1.9609     6.0702    15.9612 H       
 236 H236           3.5098     5.3010    15.5398 H       
 237 H237           2.3964     3.0859    15.4908 H       
 238 H238           0.8475     3.8551    15.9121 H       
 239 H239           0.9578     5.2123    13.8398 H       
 240 H240           2.5067     4.4431    13.4185 H       
 241 H241           1.3933     2.2280    13.3694 H       
 242 H242          -0.1556     2.9972    13.7907 H       
 243 H243           1.5036     3.5853    11.2971 H       
 244 H244          -0.0453     4.3545    11.7184 H       
@<TRIPOS>BOND
   1    1    2 2
   2    1    4 1
   3    1   14 am
   4    3    4 1
   5    3  111 1
   6    3  112 1
   7    4    5 1
   8    4  113 1
   9    5    6 1
  10    5  114 1
  11    5  115 1
  12    6    7 1
  13    6  116 1
  14    6  117 1
  15    7    8 1
  16    7  118 1
  17    7  119 1
  18    8    9 1
  19    8  120 1
  20    9   10 2
  21    9   11 1
  22   10  121 1
  23   11   94 am
  24   11  122 1
  25   12   13 2
  26   12   21 am
  27   12   15 1
  28   14   15 1
  29   14   18 1
  30   15   16 1
  31   15  123 1
  32   16   17 1
  33   16  124 1
  34   16  125 1
  35   17   18 1
  36   17  126 1
  37   17  127 1
  38   18  128 1
  39   18  129 1
  40   19   20 2
  41   19   22 1
  42   19   28 am
  43   21   22 1
  44   21  130 1
  45   22   23 1
  46   22  131 1
  47   23   24 1
  48   23   25 1
  49   23  132 1
  50   24  133 1
  51   24  134 1
  52   24  135 1
  53   25  136 1
  54   25  137 1
  55   25  138 1
  56   26   27 2
  57   26   29 1
  58   26   33 am
  59   28   29 1
  60   28  139 1
  61   29   30 1
  62   29  140 1
  63   30  141 1
  64   30  142 1
  65   30  143 1
  66   31   32 2
  67   31   34 1
  68   31   41 am
  69   33   34 1
  70   33  144 1
  71   34   35 1
  72   34  145 1
  73   35   36 1
  74   35  146 1
  75   35  147 1
  76   36   37 2
  77   36   38 am
  78   38  148 1
  79   38  149 1
  80   39   40 2
  81   39   42 1
  82   39   46 am
  83   41   42 1
  84   41  150 1
  85   42   43 1
  86   42  151 1
  87   43  152 1
  88   43  153 1
  89   43  154 1
  90   44   45 2
  91   44   47 1
  92   44   57 am
  93   46   47 1
  94   46  155 1
  95   47   48 1
  96   47  156 1
  97   48   49 1
  98   48  157 1
  99   48  158 1
 100   49   50 1
 101   49  159 1
 102   49  160 1
 103   50   51 1
 104   50  161 1
 105   50  162 1
 106   51   52 1
 107   51  163 1
 108   52   53 2
 109   52   54 1
 110   53  164 1
 111   54  165 1
 112   54  166 1
 113   55   56 2
 114   55   58 1
 115   55   65 am
 116   57   58 1
 117   57  167 1
 118   58   59 1
 119   58  168 1
 120   59   60 1
 121   59  169 1
 122   59  170 1
 123   60   61 1
 124   60   62 1
 125   60  171 1
 126   61  172 1
 127   61  173 1
 128   61  174 1
 129   62  175 1
 130   62  176 1
 131   62  177 1
 132   63   64 2
 133   63   66 1
 134   63   76 am
 135   65   66 1
 136   65  178 1
 137   66   67 1
 138   66  179 1
 139   67   68 1
 140   67  180 1
 141   67  181 1
 142   68   69 1
 143   68  182 1
 144   68  183 1
 145   69   70 1
 146   69  184 1
 147   69  185 1
 148   70   71 1
 149   70  186 1
 150   71   72 2
 151   71   73 1
 152   72  187 1
 153   73  188 1
 154   73  189 1
 155   74   75 2
 156   74   77 1
 157   74   84 am
 158   76   77 1
 159   76  190 1
 160   77   78 1
 161   77  191 1
 162   78   79 1
 163   78  192 1
 164   78  193 1
 165   79   80 1
 166   79   81 1
 167   79  194 1
 168   80  195 1
 169   80  196 1
 170   80  197 1
 171   81  198 1
 172   81  199 1
 173   81  200 1
 174   82   83 2
 175   82   85 1
 176   82   93 1
 177   84   85 1
 178   84  201 1
 179   85   86 1
 180   85  202 1
 181   86   87 1
 182   86  203 1
 183   86  204 1
 184   87   88 1
 185   87  205 1
 186   87  206 1
 187   88   89 1
 188   88  207 1
 189   88  208 1
 190   89   90 1
 191   89  209 1
 192   90   91 2
 193   90   92 1
 194   91  210 1
 195   92  211 1
 196   92  212 1
 197   93  213 1
 198   94   95 2
 199   94  110 1
 200   96   97 1
 201   96  214 1
 202   96  215 1
 203   96  216 1
 204   97   98 1
 205   97  217 1
 206   97  218 1
 207   98   99 1
 208   98  219 1
 209   98  220 1
 210   99  100 1
 211   99  221 1
 212   99  222 1
 213  100  101 1
 214  100  223 1
 215  100  224 1
 216  101  102 1
 217  101  225 1
 218  101  226 1
 219  102  103 1
 220  102  227 1
 221  102  228 1
 222  103  104 1
 223  103  229 1
 224  103  230 1
 225  104  105 1
 226  104  231 1
 227  104  232 1
 228  105  106 1
 229  105  233 1
 230  105  234 1
 231  106  107 1
 232  106  235 1
 233  106  236 1
 234  107  108 1
 235  107  237 1
 236  107  238 1
 237  108  109 1
 238  108  239 1
 239  108  240 1
 240  109  110 1
 241  109  241 1
 242  109  242 1
 243  110  243 1
 244  110  244 1

#	End of record

