#	Name: ASD01890462
#	Creating user name:	WinNT
#	Creation time:	15. 06. 2019 19:51

#	Modifying user name:	WinNT
#	Modification time:	15. 06. 2019 19:51

#	Program:	/corina/corina34_cracker 3.40 0067  02.08.2006

@<TRIPOS>MOLECULE
ASD01890462
  35   38    0    0    0
SMALL
NO_CHARGES


@<TRIPOS>ATOM
   1 C1            -0.0166     1.3753     0.0096 C.ar    
   2 C2             0.0021    -0.0041     0.0020 C.ar    
   3 C3            -1.1979    -0.7210     0.0110 C.ar    
   4 C4            -2.4059    -0.0130    -0.0013 C.ar    
   5 C5            -2.4144     1.3601     0.0190 C.ar    
   6 C6            -1.2199     2.0604     0.0305 C.ar    
   7 N7            -1.4437    -2.0686     0.0666 N.2     
   8 C8            -2.6803    -2.3633     0.0796 C.2     
   9 C9            -3.4730    -1.0687    -0.0758 C.3     
  10 C10           -3.3702    -3.6829     0.3311 C.3     
  11 C11           -4.2576    -3.4942     1.5718 C.3     
  12 C12           -5.1962    -2.3024     1.3914 C.3     
  13 C13           -4.4084    -1.0376     1.1130 C.2     
  14 O14           -4.5215    -0.0547     1.8054 O.2     
  15 C15           -5.0755    -4.7409     1.7907 C.ar    
  16 C16           -4.9504    -5.4510     2.9701 C.ar    
  17 C17           -5.7003    -6.5945     3.1715 C.ar    
  18 C18           -6.5761    -7.0283     2.1923 C.ar    
  19 C19           -6.7009    -6.3172     1.0121 C.ar    
  20 C20           -5.9546    -5.1708     0.8143 C.ar    
  21 Cl21          -7.5179    -8.4648     2.4443 Cl      
  22 Cl22           1.4782     2.2580     0.0001 Cl      
  23 H23            0.9449    -0.5306    -0.0112 H       
  24 H24           -3.3532     1.8940     0.0306 H       
  25 H25           -1.2267     3.1403     0.0468 H       
  26 H26           -4.0076    -1.0326    -1.0250 H       
  27 H27           -3.9844    -3.9516    -0.5283 H       
  28 H28           -2.6295    -4.4604     0.5181 H       
  29 H29           -3.6248    -3.3238     2.4428 H       
  30 H30           -5.8684    -2.4980     0.5560 H       
  31 H31           -5.7833    -2.1671     2.2998 H       
  32 H32           -4.2664    -5.1124     3.7343 H       
  33 H33           -5.6022    -7.1494     4.0928 H       
  34 H34           -7.3844    -6.6554     0.2474 H       
  35 H35           -6.0519    -4.6156    -0.1070 H       
@<TRIPOS>BOND
   1    1    2 ar
   2    1   22 1
   3    1    6 ar
   4    2    3 ar
   5    2   23 1
   6    3    4 ar
   7    3    7 1
   8    4    5 ar
   9    4    9 1
  10    5    6 ar
  11    5   24 1
  12    6   25 1
  13    7    8 2
  14    8    9 1
  15    8   10 1
  16    9   13 1
  17    9   26 1
  18   10   11 1
  19   10   27 1
  20   10   28 1
  21   11   12 1
  22   11   15 1
  23   11   29 1
  24   12   13 1
  25   12   30 1
  26   12   31 1
  27   13   14 2
  28   15   16 ar
  29   15   20 ar
  30   16   17 ar
  31   16   32 1
  32   17   18 ar
  33   17   33 1
  34   18   19 ar
  35   18   21 1
  36   19   20 ar
  37   19   34 1
  38   20   35 1

#	End of record

