#	Name: ASD01812893
#	Creating user name:	WinNT
#	Creation time:	15. 06. 2019 19:29

#	Modifying user name:	WinNT
#	Modification time:	15. 06. 2019 19:29

#	Program:	/corina/corina34_cracker 3.40 0067  02.08.2006

@<TRIPOS>MOLECULE
ASD01812893
  54   58    0    0    0
SMALL
NO_CHARGES


@<TRIPOS>ATOM
   1 N1            -0.0158     1.3146     0.0093 N.ar    
   2 C2             0.0021    -0.0041     0.0020 C.ar    
   3 C3             1.1989    -0.7034    -0.0132 C.ar    
   4 C4             2.3830    -0.0015    -0.0207 C.ar    
   5 C5             2.3451     1.3976    -0.0128 C.ar    
   6 C6             1.0957     2.0332     0.0025 C.ar    
   7 C7             3.8374    -0.3893    -0.0367 C.3     
   8 N8             4.5957     0.8681    -0.0372 N.am    
   9 C9             3.7283     1.8958    -0.0234 C.2     
  10 C10            6.0560     0.9839    -0.0497 C.3     
  11 C11            6.5440     1.0308    -1.4748 C.ar    
  12 O12            1.0258     3.3856     0.0104 O.3     
  13 O13            4.0433     3.0702    -0.0204 O.2     
  14 C14            6.6723     2.2478    -2.1195 C.ar    
  15 C15            7.1187     2.2966    -3.4246 C.ar    
  16 C16            7.4403     1.1170    -4.0927 C.ar    
  17 C17            7.3092    -0.1061    -3.4385 C.ar    
  18 C18            6.8673    -0.1429    -2.1314 C.ar    
  19 C19           -0.2046     3.9604     0.0253 C.ar    
  20 C20           -0.8217     4.2476     1.2389 C.ar    
  21 C21           -2.0713     4.8314     1.2572 C.ar    
  22 C22           -2.7160     5.1341     0.0549 C.ar    
  23 C23           -2.0914     4.8439    -1.1611 C.ar    
  24 C24           -0.8412     4.2653    -1.1711 C.ar    
  25 F25           -0.1967     3.9541     2.4001 F       
  26 C26           -4.0136     5.7398     0.0688 C.1     
  27 C27            7.9204     1.1631    -5.4963 C.2     
  28 N28            8.0920     2.2486    -6.2207 N.2     
  29 C29            8.2787     0.0536    -6.2864 C.2     
  30 C30            8.6608     0.5139    -7.4976 C.2     
  31 N31            8.5608     1.8605    -7.4823 N.pl3   
  32 C32            8.8814     2.7590    -8.5941 C.3     
  33 N33           -5.0429     6.2203     0.0798 N.1     
  34 C34           -0.1655     3.9572    -2.4824 C.3     
  35 H35           -0.9309    -0.5480     0.0084 H       
  36 H36            1.2023    -1.7834    -0.0186 H       
  37 H37            4.0796    -0.9727     0.8516 H       
  38 H38            4.0626    -0.9631    -0.9356 H       
  39 H39            6.3525     1.8972     0.4661 H       
  40 H40            6.4932     0.1229     0.4558 H       
  41 H41            6.4224     3.1616    -1.6008 H       
  42 H42            7.2182     3.2473    -3.9272 H       
  43 H43            7.5568    -1.0235    -3.9518 H       
  44 H44            6.7694    -1.0901    -1.6219 H       
  45 H45           -2.5508     5.0537     2.1991 H       
  46 H46           -2.5867     5.0766    -2.0921 H       
  47 H47            8.2528    -0.9813    -5.9786 H       
  48 H48            8.9944    -0.0886    -8.3295 H       
  49 H49            9.9290     3.0537    -8.5326 H       
  50 H50            8.7032     2.2458    -9.5390 H       
  51 H51            8.2505     3.6461    -8.5378 H       
  52 H52           -0.4380     2.9520    -2.8042 H       
  53 H53           -0.4855     4.6786    -3.2343 H       
  54 H54            0.9155     4.0181    -2.3573 H       
@<TRIPOS>BOND
   1    1    2 ar
   2    1    6 ar
   3    2    3 ar
   4    2   35 1
   5    3    4 ar
   6    3   36 1
   7    4    7 1
   8    4    5 ar
   9    5    6 ar
  10    5    9 1
  11    6   12 1
  12    7    8 1
  13    7   37 1
  14    7   38 1
  15    8    9 am
  16    8   10 1
  17    9   13 2
  18   10   11 1
  19   10   39 1
  20   10   40 1
  21   11   14 ar
  22   11   18 ar
  23   12   19 1
  24   14   15 ar
  25   14   41 1
  26   15   16 ar
  27   15   42 1
  28   16   17 ar
  29   16   27 1
  30   17   18 ar
  31   17   43 1
  32   18   44 1
  33   19   20 ar
  34   19   24 ar
  35   20   21 ar
  36   20   25 1
  37   21   22 ar
  38   21   45 1
  39   22   23 ar
  40   22   26 1
  41   23   24 ar
  42   23   46 1
  43   24   34 1
  44   26   33 3
  45   27   29 1
  46   27   28 2
  47   28   31 1
  48   29   30 2
  49   29   47 1
  50   30   31 1
  51   30   48 1
  52   31   32 1
  53   32   49 1
  54   32   50 1
  55   32   51 1
  56   34   52 1
  57   34   53 1
  58   34   54 1

#	End of record

