#	Name: ASD01810659
#	Creating user name:	WinNT
#	Creation time:	15. 06. 2019 19:25

#	Modifying user name:	WinNT
#	Modification time:	15. 06. 2019 19:25

#	Program:	/corina/corina34_cracker 3.40 0067  02.08.2006

@<TRIPOS>MOLECULE
ASD01810659
  46   49    0    0    0
SMALL
NO_CHARGES


@<TRIPOS>ATOM
   1 N1            -0.0147     1.2901    -0.1149 N.pl3   
   2 N2             0.0047     0.0243    -0.3032 N.2     
   3 C3             1.1017    -0.6857    -0.4437 C.2     
   4 C4             2.4121    -0.0105    -0.3856 C.2     
   5 C5             2.3838     1.4477    -0.1684 C.ar    
   6 C6             3.5476     2.2075    -0.0925 C.ar    
   7 C7             3.4566     3.5676     0.1126 C.ar    
   8 C8             2.2159     4.1758     0.2430 C.ar    
   9 C9             1.0546     3.4355     0.1700 C.ar    
  10 C10            1.1226     2.0601    -0.0371 C.ar    
  11 C11            1.0235    -2.1413    -0.6567 C.2     
  12 O12            2.0418    -2.7920    -0.7859 O.2     
  13 O13           -0.1772    -2.7514    -0.7082 O.3     
  14 S14            3.8819    -0.8710    -0.5598 S.2     
  15 C15           -1.3140     1.9535     0.0188 C.3     
  16 C16           -2.4148     0.9318    -0.1055 C.ar    
  17 C17           -2.8902     0.2890     1.0228 C.ar    
  18 C18           -3.8990    -0.6478     0.9121 C.ar    
  19 C19           -4.4361    -0.9436    -0.3336 C.ar    
  20 C20           -3.9570    -0.2963    -1.4645 C.ar    
  21 C21           -2.9514     0.6432    -1.3468 C.ar    
  22 N22           -5.4597    -1.8943    -0.4492 N.pl3   
  23 N23           -6.0346    -2.6190     0.6028 N.2     
  24 C24           -6.9543    -3.4050     0.1037 C.2     
  25 C25           -6.9954    -3.2071    -1.2808 C.2     
  26 C26           -6.0712    -2.2701    -1.5953 C.2     
  27 Cl27          -0.4872     4.2157     0.3363 Cl      
  28 C28           -0.1783    -4.1877    -0.9208 C.3     
  29 C29           -1.6204    -4.6979    -0.9497 C.3     
  30 H30            4.5137     1.7354    -0.1931 H       
  31 H31            4.3556     4.1631     0.1725 H       
  32 H32            2.1591     5.2422     0.4041 H       
  33 H33           -1.3762     2.4379     0.9933 H       
  34 H34           -1.4224     2.7017    -0.7664 H       
  35 H35           -2.4720     0.5195     1.9915 H       
  36 H36           -4.2694    -1.1501     1.7935 H       
  37 H37           -4.3729    -0.5243    -2.4348 H       
  38 H38           -2.5809     1.1498    -2.2257 H       
  39 H39           -7.5744    -4.0891     0.6640 H       
  40 H40           -7.6518    -3.7103    -1.9753 H       
  41 H41           -5.8585    -1.8919    -2.5843 H       
  42 H42            0.3066    -4.4149    -1.8702 H       
  43 H43            0.3634    -4.6753    -0.1103 H       
  44 H44           -2.1053    -4.4708    -0.0003 H       
  45 H45           -2.1621    -4.2103    -1.7602 H       
  46 H46           -1.6212    -5.7762    -1.1093 H       
@<TRIPOS>BOND
   1    1    2 1
   2    1   10 1
   3    1   15 1
   4    2    3 2
   5    3    4 1
   6    3   11 1
   7    4    5 1
   8    4   14 2
   9    5    6 ar
  10    5   10 ar
  11    6    7 ar
  12    6   30 1
  13    7    8 ar
  14    7   31 1
  15    8    9 ar
  16    8   32 1
  17    9   10 ar
  18    9   27 1
  19   11   12 2
  20   11   13 1
  21   13   28 1
  22   15   16 1
  23   15   33 1
  24   15   34 1
  25   16   17 ar
  26   16   21 ar
  27   17   18 ar
  28   17   35 1
  29   18   19 ar
  30   18   36 1
  31   19   20 ar
  32   19   22 1
  33   20   21 ar
  34   20   37 1
  35   21   38 1
  36   22   23 1
  37   22   26 1
  38   23   24 2
  39   24   25 1
  40   24   39 1
  41   25   26 2
  42   25   40 1
  43   26   41 1
  44   28   29 1
  45   28   42 1
  46   28   43 1
  47   29   44 1
  48   29   45 1
  49   29   46 1

#	End of record

