#	Name: ASD02200001
#	Creating user name:	WinNT
#	Creation time:	15. 06. 2019 20:20

#	Modifying user name:	WinNT
#	Modification time:	15. 06. 2019 20:20

#	Program:	/corina/corina34_cracker 3.40 0067  02.08.2006

@<TRIPOS>MOLECULE
ASD02200001
  66   69    0    0    0
SMALL
NO_CHARGES


@<TRIPOS>ATOM
   1 C1            -0.0187     1.5258     0.0104 C.3     
   2 C2             0.0021    -0.0041     0.0020 C.3     
   3 O3             0.6932    -0.4774     1.1597 O.3     
   4 C4             0.8018    -1.8217     1.3054 C.ar    
   5 C5             0.2557    -2.6715     0.3558 C.ar    
   6 C6             0.3674    -4.0401     0.5052 C.ar    
   7 C7             1.0236    -4.5746     1.6019 C.ar    
   8 C8             1.5723    -3.7456     2.5561 C.ar    
   9 C9             1.4723    -2.3586     2.4147 C.ar    
  10 C10            2.0568    -1.4660     3.4307 C.2     
  11 N11            1.9464    -0.1637     3.2696 N.2     
  12 C12            2.4599     0.7009     4.1637 C.2     
  13 O13            2.3476     1.9036     3.9984 O.2     
  14 C14            3.1576     0.1707     5.3427 C.2     
  15 N15            3.2592    -1.2008     5.4872 N.pl3   
  16 N16            2.6884    -2.0197     4.5073 N.pl3   
  17 C17            3.9301    -1.4262     6.6259 C.2     
  18 C18            4.2746    -2.7831     7.1838 C.3     
  19 C19            5.6353    -3.2265     6.6428 C.3     
  20 C20            5.9851    -4.6041     7.2092 C.3     
  21 N21            4.2386    -0.2773     7.1758 N.2     
  22 C22            3.7807     0.7223     6.4162 C.2     
  23 C23            3.9287     2.1950     6.6994 C.3     
  24 S24            1.1568    -6.3227     1.7778 S.o2    
  25 O25            1.3466    -6.5733     3.1636 O.2     
  26 O26            0.0900    -6.8841     1.0254 O.2     
  27 N27            2.5560    -6.7861     1.0229 N.am    
  28 C28            3.8284    -6.8404     1.7585 C.3     
  29 C29            4.4681    -8.2130     1.5240 C.3     
  30 N30            4.5746    -8.4597     0.0798 N.3     
  31 C31            3.2489    -8.5146    -0.5506 C.3     
  32 C32            2.5581    -7.1602    -0.3996 C.3     
  33 C33            5.3370    -9.6861    -0.1900 C.3     
  34 C34            5.2170   -10.0455    -1.6723 C.3     
  35 H35            1.0039     1.9031     0.0027 H       
  36 H36           -0.5459     1.8868    -0.8726 H       
  37 H37           -0.5289     1.8773     0.9072 H       
  38 H38           -1.0205    -0.3814     0.0098 H       
  39 H39            0.5123    -0.3556    -0.8948 H       
  40 H40           -0.2581    -2.2628    -0.5017 H       
  41 H41           -0.0598    -4.6976    -0.2375 H       
  42 H42            2.0826    -4.1669     3.4096 H       
  43 H43            2.7478    -2.9844     4.5892 H       
  44 H44            4.3163    -2.7288     8.2717 H       
  45 H45            3.5127    -3.5030     6.8850 H       
  46 H46            5.5936    -3.2808     5.5550 H       
  47 H47            6.3973    -2.5066     6.9417 H       
  48 H48            6.0268    -4.5497     8.2971 H       
  49 H49            5.2232    -5.3240     6.9103 H       
  50 H50            6.9545    -4.9200     6.8238 H       
  51 H51            4.8510     2.5608     6.2481 H       
  52 H52            3.0796     2.7332     6.2782 H       
  53 H53            3.9627     2.3561     7.7769 H       
  54 H54            4.4953    -6.0587     1.3948 H       
  55 H55            3.6420    -6.7004     2.8233 H       
  56 H56            5.4623    -8.2320     1.9705 H       
  57 H57            3.8492    -8.9855     1.9803 H       
  58 H58            3.3588    -8.7523    -1.6087 H       
  59 H59            2.6469    -9.2829    -0.0654 H       
  60 H60            1.5328    -7.2296    -0.7631 H       
  61 H61            3.1014    -6.4065    -0.9695 H       
  62 H62            6.3853    -9.5248     0.0611 H       
  63 H63            4.9397   -10.5013     0.4148 H       
  64 H64            4.1687   -10.2067    -1.9234 H       
  65 H65            5.6143    -9.2303    -2.2771 H       
  66 H66            5.7827   -10.9555    -1.8725 H       
@<TRIPOS>BOND
   1    1    2 1
   2    1   35 1
   3    1   36 1
   4    1   37 1
   5    2    3 1
   6    2   38 1
   7    2   39 1
   8    3    4 1
   9    4    5 ar
  10    4    9 ar
  11    5    6 ar
  12    5   40 1
  13    6    7 ar
  14    6   41 1
  15    7    8 ar
  16    7   24 1
  17    8    9 ar
  18    8   42 1
  19    9   10 1
  20   10   11 2
  21   10   16 1
  22   11   12 1
  23   12   13 2
  24   12   14 1
  25   14   15 1
  26   14   22 2
  27   15   16 1
  28   15   17 1
  29   16   43 1
  30   17   18 1
  31   17   21 2
  32   18   19 1
  33   18   44 1
  34   18   45 1
  35   19   20 1
  36   19   46 1
  37   19   47 1
  38   20   48 1
  39   20   49 1
  40   20   50 1
  41   21   22 1
  42   22   23 1
  43   23   51 1
  44   23   52 1
  45   23   53 1
  46   24   25 2
  47   24   26 2
  48   24   27 am
  49   27   28 1
  50   27   32 1
  51   28   29 1
  52   28   54 1
  53   28   55 1
  54   29   30 1
  55   29   56 1
  56   29   57 1
  57   30   31 1
  58   30   33 1
  59   31   32 1
  60   31   58 1
  61   31   59 1
  62   32   60 1
  63   32   61 1
  64   33   34 1
  65   33   62 1
  66   33   63 1
  67   34   64 1
  68   34   65 1
  69   34   66 1

#	End of record

