#	Name: ASD01890207
#	Creating user name:	WinNT
#	Creation time:	15. 06. 2019 19:50

#	Modifying user name:	WinNT
#	Modification time:	15. 06. 2019 19:50

#	Program:	/corina/corina34_cracker 3.40 0067  02.08.2006

@<TRIPOS>MOLECULE
ASD01890207
  47   48    0    0    0
SMALL
NO_CHARGES


@<TRIPOS>ATOM
   1 C1            -0.0279     1.4541    -0.0223 C.2     
   2 C2            -0.0036    -0.0080    -0.0416 C.2     
   3 C3             1.1740    -0.6622    -0.1145 C.2     
   4 C4             2.4493     0.1057    -0.3495 C.3     
   5 C5             3.0808     0.4693     0.9958 C.3     
   6 O6             1.0138     2.0788     0.0397 O.2     
   7 O7            -1.2054     2.1100    -0.0788 O.3     
   8 C8             1.2133    -2.1258     0.0353 C.ar    
   9 C9             0.5944    -2.9462    -0.9132 C.ar    
  10 C10            0.6360    -4.3166    -0.7661 C.ar    
  11 C11            1.2876    -4.8805     0.3169 C.ar    
  12 C12            1.9021    -4.0752     1.2601 C.ar    
  13 C13            1.8747    -2.7034     1.1237 C.ar    
  14 C14            4.3561     1.2372     0.7609 C.ar    
  15 C15            4.3250     2.6158     0.6649 C.ar    
  16 C16            5.4948     3.3202     0.4494 C.ar    
  17 C17            6.6957     2.6459     0.3303 C.ar    
  18 C18            6.7268     1.2673     0.4273 C.ar    
  19 C19            5.5577     0.5633     0.6471 C.ar    
  20 C20            7.9708     3.4137     0.0944 C.3     
  21 C21            8.6025     3.7787     1.4392 C.3     
  22 C22           -1.1544     3.5379    -0.0558 C.3     
  23 C23           -2.5756     4.1001    -0.1273 C.3     
  24 H24           -0.9284    -0.5640     0.0026 H       
  25 H25            3.1434    -0.5093    -0.9223 H       
  26 H26            2.2276     1.0170    -0.9049 H       
  27 H27            2.3867     1.0842     1.5687 H       
  28 H28            3.3025    -0.4420     1.5513 H       
  29 H29            0.0849    -2.5077    -1.7585 H       
  30 H30            0.1585    -4.9516    -1.4977 H       
  31 H31            1.3164    -5.9545     0.4269 H       
  32 H32            2.4080    -4.5227     2.1029 H       
  33 H33            2.3585    -2.0765     1.8581 H       
  34 H34            3.3868     3.1426     0.7579 H       
  35 H35            5.4704     4.3973     0.3736 H       
  36 H36            7.6650     0.7405     0.3340 H       
  37 H37            5.5825    -0.5135     0.7266 H       
  38 H38            8.6648     2.7983    -0.4780 H       
  39 H39            7.7489     4.3244    -0.4619 H       
  40 H40            7.9085     4.3942     2.0116 H       
  41 H41            8.8244     2.8680     1.9955 H       
  42 H42            9.5248     4.3341     1.2685 H       
  43 H43           -0.6784     3.8696     0.8669 H       
  44 H44           -0.5791     3.8947    -0.9101 H       
  45 H45           -3.0516     3.7684    -1.0500 H       
  46 H46           -3.1509     3.7433     0.7270 H       
  47 H47           -2.5367     5.1893    -0.1098 H       
@<TRIPOS>BOND
   1    1    2 1
   2    1    6 2
   3    1    7 1
   4    2    3 2
   5    2   24 1
   6    3    4 1
   7    3    8 1
   8    4    5 1
   9    4   25 1
  10    4   26 1
  11    5   14 1
  12    5   27 1
  13    5   28 1
  14    7   22 1
  15    8    9 ar
  16    8   13 ar
  17    9   10 ar
  18    9   29 1
  19   10   11 ar
  20   10   30 1
  21   11   12 ar
  22   11   31 1
  23   12   13 ar
  24   12   32 1
  25   13   33 1
  26   14   15 ar
  27   14   19 ar
  28   15   16 ar
  29   15   34 1
  30   16   17 ar
  31   16   35 1
  32   17   18 ar
  33   17   20 1
  34   18   19 ar
  35   18   36 1
  36   19   37 1
  37   20   21 1
  38   20   38 1
  39   20   39 1
  40   21   40 1
  41   21   41 1
  42   21   42 1
  43   22   23 1
  44   22   43 1
  45   22   44 1
  46   23   45 1
  47   23   46 1
  48   23   47 1

#	End of record

