#	Name: ASD03331615
#	Creating user name:	WinNT
#	Creation time:	15. 06. 2019 20:39

#	Modifying user name:	WinNT
#	Modification time:	15. 06. 2019 20:39

#	Program:	/corina/corina34_cracker 3.40 0067  02.08.2006

@<TRIPOS>MOLECULE
ASD03331615
  53   55    0    0    0
SMALL
NO_CHARGES


@<TRIPOS>ATOM
   1 C1            -0.1388     1.7226     0.4840 C.ar    
   2 C2            -0.0070     0.2557     0.3462 C.2     
   3 N3            -0.9849    -0.6579     0.5884 N.pl3   
   4 C4            -0.4702    -1.8869     0.3463 C.2     
   5 C5             0.8198    -1.7170    -0.0409 C.2     
   6 N6             1.0741    -0.3876    -0.0369 N.2     
   7 C7             1.7684    -2.7846    -0.4042 C.2     
   8 N8             3.0266    -2.4716    -0.7721 N.am    
   9 C9            -2.3698    -0.4098     1.0356 C.3     
  10 C10           -2.5114    -1.0492     2.4265 C.3     
  11 C11           -2.7181    -2.5400     2.3154 C.3     
  12 N12           -1.5696    -3.3300     1.9253 N.3     
  13 C13           -1.2387    -3.1870     0.4946 C.3     
  14 C14           -0.9861     2.2611     1.4527 C.ar    
  15 O15            1.4158    -3.9482    -0.3720 O.2     
  16 C16            3.9696    -3.5330    -1.1333 C.3     
  17 C17           -1.7558    -4.7424     2.2839 C.3     
  18 C18           -3.2051    -3.0521     3.6724 C.3     
  19 C19            3.4206    -4.3190    -2.3256 C.3     
  20 C20           -1.1054     3.6316     1.5770 C.ar    
  21 C21           -0.3842     4.4710     0.7397 C.ar    
  22 C22            0.4577     3.9393    -0.2235 C.ar    
  23 C23            0.5885     2.5721    -0.3506 C.ar    
  24 F24           -0.5038     5.8110     0.8640 F       
  25 F25           -1.9253     4.1554     2.5143 F       
  26 C26            5.3168    -2.9123    -1.5084 C.3     
  27 C27            4.1563    -4.4761     0.0569 C.3     
  28 H28            3.3078    -1.5436    -0.7977 H       
  29 H29           -2.5543     0.6626     1.0983 H       
  30 H30           -3.0732    -0.8695     0.3412 H       
  31 H31           -1.6076    -0.8548     3.0039 H       
  32 H32           -3.3653    -0.6063     2.9392 H       
  33 H33           -3.5109    -2.7168     1.5885 H       
  34 H34           -2.1535    -3.1477    -0.0968 H       
  35 H35           -0.6203    -4.0239     0.1702 H       
  36 H36           -1.5479     1.6077     2.1038 H       
  37 H37           -2.7011    -5.0994     1.8752 H       
  38 H38           -0.9365    -5.3325     1.8735 H       
  39 H39           -1.7681    -4.8431     3.3692 H       
  40 H40           -4.0690    -2.4693     3.9919 H       
  41 H41           -3.4868    -4.1014     3.5850 H       
  42 H42           -2.4063    -2.9503     4.4071 H       
  43 H43            3.2876    -3.6471    -3.1735 H       
  44 H44            4.1222    -5.1087    -2.5943 H       
  45 H45            2.4608    -4.7612    -2.0583 H       
  46 H46            1.0164     4.5968    -0.8732 H       
  47 H47            1.2453     2.1594    -1.1021 H       
  48 H48            5.7080    -2.3523    -0.6590 H       
  49 H49            6.0184    -3.7020    -1.7771 H       
  50 H50            5.1838    -2.2404    -2.3563 H       
  51 H51            3.1965    -4.9183     0.3242 H       
  52 H52            4.8580    -5.2658    -0.2118 H       
  53 H53            4.5475    -3.9161     0.9064 H       
@<TRIPOS>BOND
   1    1    2 1
   2    1   14 ar
   3    1   23 ar
   4    2    3 1
   5    2    6 2
   6    3    4 1
   7    3    9 1
   8    4    5 2
   9    4   13 1
  10    5    6 1
  11    5    7 1
  12    7    8 am
  13    7   15 2
  14    8   16 1
  15    8   28 1
  16    9   10 1
  17    9   29 1
  18    9   30 1
  19   10   11 1
  20   10   31 1
  21   10   32 1
  22   11   12 1
  23   11   18 1
  24   11   33 1
  25   12   13 1
  26   12   17 1
  27   13   34 1
  28   13   35 1
  29   14   20 ar
  30   14   36 1
  31   16   19 1
  32   16   26 1
  33   16   27 1
  34   17   37 1
  35   17   38 1
  36   17   39 1
  37   18   40 1
  38   18   41 1
  39   18   42 1
  40   19   43 1
  41   19   44 1
  42   19   45 1
  43   20   21 ar
  44   20   25 1
  45   21   22 ar
  46   21   24 1
  47   22   23 ar
  48   22   46 1
  49   23   47 1
  50   26   48 1
  51   26   49 1
  52   26   50 1
  53   27   51 1
  54   27   52 1
  55   27   53 1

#	End of record

