#	Name: ASD01883419
#	Creating user name:	WinNT
#	Creation time:	15. 06. 2019 19:46

#	Modifying user name:	WinNT
#	Modification time:	15. 06. 2019 19:46

#	Program:	/corina/corina34_cracker 3.40 0067  02.08.2006

@<TRIPOS>MOLECULE
ASD01883419
  63   66    0    0    0
SMALL
NO_CHARGES


@<TRIPOS>ATOM
   1 N1            -0.0281     1.3426    -0.2540 N.am    
   2 C2            -0.4227     0.5867    -1.2954 C.2     
   3 C3            -1.6487    -0.1168    -1.2320 C.2     
   4 C4            -2.4309    -0.0062    -0.0700 C.2     
   5 C5            -1.9645     0.7996     0.9851 C.2     
   6 C6            -0.7830     1.4445     0.8708 C.2     
   7 O7             0.2753     0.5085    -2.2922 O.2     
   8 C8            -2.0841    -0.9253    -2.3309 C.1     
   9 N9            -2.4295    -1.5666    -3.2026 N.1     
  10 C10            1.2438     2.0653    -0.3328 C.3     
  11 C11           -4.8806     0.0819     0.1531 C.3     
  12 C12           -5.8511    -0.3583    -0.9464 C.3     
  13 C13           -7.1760     0.3894    -0.7800 C.3     
  14 N14           -7.7418     0.0968     0.5431 N.3     
  15 C15           -6.8486     0.5536     1.6154 C.3     
  16 C16           -5.5140    -0.1892     1.5206 C.3     
  17 C17           -9.0798     0.6863     0.6855 C.3     
  18 C18            1.0087     3.4336    -0.9188 C.ar    
  19 N19           -3.6309    -0.6732     0.0341 N.pl3   
  20 C20           -9.7263     0.1667     1.9437 C.ar    
  21 C21           -9.5550     0.8411     3.1382 C.ar    
  22 C22          -10.1479     0.3645     4.2923 C.ar    
  23 C23          -10.9127    -0.7864     4.2520 C.ar    
  24 C24          -11.0848    -1.4603     3.0574 C.ar    
  25 C25          -10.4953    -0.9813     1.9024 C.ar    
  26 C26            0.7193     4.5000    -0.0877 C.ar    
  27 C27            0.5033     5.7553    -0.6224 C.ar    
  28 C28            0.5770     5.9455    -1.9947 C.ar    
  29 C29            0.8676     4.8739    -2.8265 C.ar    
  30 C30            1.0883     3.6217    -2.2863 C.ar    
  31 C31           -3.6579    -2.1379     0.0258 C.3     
  32 O32            0.3645     7.1793    -2.5232 O.3     
  33 C33            0.4565     7.3011    -3.9440 C.3     
  34 F34           -0.4909     6.4660    -4.5459 F       
  35 F35            0.2118     8.6275    -4.3152 F       
  36 F36            1.7387     6.9288    -4.3620 F       
  37 H37           -2.5493     0.8996     1.8876 H       
  38 H38           -0.4353     2.0601     1.6872 H       
  39 H39            1.6670     2.1659     0.6667 H       
  40 H40            1.9371     1.5127    -0.9669 H       
  41 H41           -4.6737     1.1472     0.0512 H       
  42 H42           -5.4237    -0.1286    -1.9224 H       
  43 H43           -6.0266    -1.4313    -0.8687 H       
  44 H44           -7.0019     1.4615    -0.8715 H       
  45 H45           -7.8741     0.0677    -1.5528 H       
  46 H46           -6.6761     1.6249     1.5127 H       
  47 H47           -7.3090     0.3512     2.5825 H       
  48 H48           -5.6841    -1.2595     1.6370 H       
  49 H49           -4.8457     0.1613     2.3071 H       
  50 H50           -8.9946     1.7715     0.7423 H       
  51 H51           -9.6902     0.4143    -0.1756 H       
  52 H52           -8.9575     1.7403     3.1697 H       
  53 H53          -10.0135     0.8910     5.2256 H       
  54 H54          -11.3754    -1.1592     5.1538 H       
  55 H55          -11.6819    -2.3597     3.0259 H       
  56 H56          -10.6298    -1.5078     0.9690 H       
  57 H57            0.6616     4.3513     0.9805 H       
  58 H58            0.2769     6.5878     0.0272 H       
  59 H59            0.9256     5.0194    -3.8951 H       
  60 H60            1.3146     2.7872    -2.9334 H       
  61 H61           -3.8528    -2.4920    -0.9865 H       
  62 H62           -2.6958    -2.5210     0.3658 H       
  63 H63           -4.4453    -2.4905     0.6919 H       
@<TRIPOS>BOND
   1    1    2 am
   2    1   10 1
   3    1    6 1
   4    2    3 1
   5    2    7 2
   6    3    4 2
   7    3    8 1
   8    4    5 1
   9    4   19 1
  10    5    6 2
  11    5   37 1
  12    6   38 1
  13    8    9 3
  14   10   18 1
  15   10   39 1
  16   10   40 1
  17   11   12 1
  18   11   19 1
  19   11   16 1
  20   11   41 1
  21   12   13 1
  22   12   42 1
  23   12   43 1
  24   13   14 1
  25   13   44 1
  26   13   45 1
  27   14   15 1
  28   14   17 1
  29   15   16 1
  30   15   46 1
  31   15   47 1
  32   16   48 1
  33   16   49 1
  34   17   20 1
  35   17   50 1
  36   17   51 1
  37   18   26 ar
  38   18   30 ar
  39   19   31 1
  40   20   21 ar
  41   20   25 ar
  42   21   22 ar
  43   21   52 1
  44   22   23 ar
  45   22   53 1
  46   23   24 ar
  47   23   54 1
  48   24   25 ar
  49   24   55 1
  50   25   56 1
  51   26   27 ar
  52   26   57 1
  53   27   28 ar
  54   27   58 1
  55   28   29 ar
  56   28   32 1
  57   29   30 ar
  58   29   59 1
  59   30   60 1
  60   31   61 1
  61   31   62 1
  62   31   63 1
  63   32   33 1
  64   33   34 1
  65   33   35 1
  66   33   36 1

#	End of record

