#	Name: ASD01410018
#	Creating user name:	WinNT
#	Creation time:	15. 06. 2019 19:16

#	Modifying user name:	WinNT
#	Modification time:	15. 06. 2019 19:16

#	Program:	/corina/corina34_cracker 3.40 0067  02.08.2006

@<TRIPOS>MOLECULE
ASD01410018
  36   37    0    0    0
SMALL
NO_CHARGES


@<TRIPOS>ATOM
   1 C1            -0.0269     1.4069    -0.0667 C.ar    
   2 C2            -0.0039     0.0234    -0.0688 C.ar    
   3 C3            -1.1880    -0.6880    -0.0480 C.ar    
   4 C4            -2.4004    -0.0144    -0.0250 C.ar    
   5 C5            -2.4214     1.3727    -0.0229 C.ar    
   6 C6            -1.2351     2.0805    -0.0384 C.ar    
   7 O7            -3.5665    -0.7125    -0.0050 O.3     
   8 C8            -4.7769     0.0467     0.0181 C.3     
   9 C9            -5.9572    -0.8902     0.0380 C.2     
  10 N10           -7.2104    -0.3948     0.0614 N.am    
  11 C11           -8.3011    -1.2554    -0.0334 C.ar    
  12 C12           -8.2239    -2.3952    -0.8219 C.ar    
  13 C13           -9.3064    -3.2470    -0.9145 C.ar    
  14 C14          -10.4755    -2.9733    -0.2234 C.ar    
  15 C15          -10.5709    -1.8465     0.5643 C.ar    
  16 C16           -9.4821    -0.9777     0.6724 C.ar    
  17 O17           -5.7793    -2.0898     0.0329 O.2     
  18 Cl18           1.4624     2.2986    -0.0922 Cl      
  19 C19           -9.5770     0.2289     1.5134 C.2     
  20 O20          -10.7479     0.5539     2.0958 O.3     
  21 O21           -8.5993     0.9306     1.6817 O.2     
  22 C22          -10.7678     1.7558     2.9104 C.3     
  23 H23            0.9402    -0.5007    -0.0871 H       
  24 H24           -1.1697    -1.7678    -0.0501 H       
  25 H25           -3.3644     1.8989    -0.0050 H       
  26 H26           -1.2510     3.1604    -0.0364 H       
  27 H27           -4.7956     0.6736     0.9095 H       
  28 H28           -4.8278     0.6764    -0.8701 H       
  29 H29           -7.3526     0.5611     0.1444 H       
  30 H30           -7.3161    -2.6157    -1.3638 H       
  31 H31           -9.2416    -4.1322    -1.5298 H       
  32 H32          -11.3166    -3.6462    -0.3027 H       
  33 H33          -11.4847    -1.6376     1.1007 H       
  34 H34          -11.7678     1.9013     3.3190 H       
  35 H35          -10.0531     1.6531     3.7269 H       
  36 H36          -10.4974     2.6151     2.2968 H       
@<TRIPOS>BOND
   1    1    2 ar
   2    1   18 1
   3    1    6 ar
   4    2    3 ar
   5    2   23 1
   6    3    4 ar
   7    3   24 1
   8    4    5 ar
   9    4    7 1
  10    5    6 ar
  11    5   25 1
  12    6   26 1
  13    7    8 1
  14    8    9 1
  15    8   27 1
  16    8   28 1
  17    9   10 am
  18    9   17 2
  19   10   11 1
  20   10   29 1
  21   11   12 ar
  22   11   16 ar
  23   12   13 ar
  24   12   30 1
  25   13   14 ar
  26   13   31 1
  27   14   15 ar
  28   14   32 1
  29   15   16 ar
  30   15   33 1
  31   16   19 1
  32   19   20 1
  33   19   21 2
  34   20   22 1
  35   22   34 1
  36   22   35 1
  37   22   36 1

#	End of record

