#	Name: ASD03731740
#	Creating user name:	WinNT
#	Creation time:	15. 06. 2019 20:46

#	Modifying user name:	WinNT
#	Modification time:	15. 06. 2019 20:46

#	Program:	/corina/corina34_cracker 3.40 0067  02.08.2006

@<TRIPOS>MOLECULE
ASD03731740
  33   34    0    0    0
SMALL
NO_CHARGES


@<TRIPOS>ATOM
   1 C1             0.7583     1.4154    -0.4020 C.2     
   2 C2             0.5739    -0.0456    -0.3016 C.ar    
   3 C3             1.5329    -0.9110    -0.8346 C.ar    
   4 C4             1.3574    -2.2733    -0.7390 C.ar    
   5 C5             0.2278    -2.7882    -0.1131 C.ar    
   6 C6            -0.7286    -1.9305     0.4184 C.ar    
   7 C7            -0.5573    -0.5670     0.3319 C.ar    
   8 O8             1.7456     1.8674    -0.9490 O.2     
   9 N9            -0.1705     2.2484     0.1079 N.am    
  10 S10            0.0364     3.8876    -0.0048 S.o2    
  11 O11           -1.1024     4.4303     0.6494 O.2     
  12 O12            1.3463     4.1109     0.4987 O.2     
  13 C13           -0.0285     4.2307    -1.7849 C.3     
  14 O14            0.0580    -4.1313    -0.0213 O.3     
  15 C15            0.5844    -4.7687     1.0577 C.ar    
  16 C16            1.1757    -4.0359     2.0768 C.ar    
  17 C17            1.7101    -4.6856     3.1735 C.ar    
  18 C18            1.6551    -6.0680     3.2550 C.ar    
  19 C19            1.0657    -6.7994     2.2385 C.ar    
  20 C20            0.5257    -6.1519     1.1437 C.ar    
  21 F21            2.1776    -6.7023     4.3273 F       
  22 Cl22           2.4507    -3.7698     4.4489 Cl      
  23 H23            2.4105    -0.5117    -1.3213 H       
  24 H24            2.0979    -2.9427    -1.1511 H       
  25 H25           -1.6049    -2.3342     0.9036 H       
  26 H26           -1.2985     0.0986     0.7490 H       
  27 H27           -0.9601     1.8878     0.5408 H       
  28 H28           -0.9933     3.9142    -2.1810 H       
  29 H29            0.1006     5.2998    -1.9537 H       
  30 H30            0.7684     3.6844    -2.2895 H       
  31 H31            1.2188    -2.9587     2.0129 H       
  32 H32            1.0242    -7.8767     2.3029 H       
  33 H33            0.0620    -6.7230     0.3529 H       
@<TRIPOS>BOND
   1    1    2 1
   2    1    8 2
   3    1    9 am
   4    2    3 ar
   5    2    7 ar
   6    3    4 ar
   7    3   23 1
   8    4    5 ar
   9    4   24 1
  10    5    6 ar
  11    5   14 1
  12    6    7 ar
  13    6   25 1
  14    7   26 1
  15    9   10 am
  16    9   27 1
  17   10   11 2
  18   10   12 2
  19   10   13 1
  20   13   28 1
  21   13   29 1
  22   13   30 1
  23   14   15 1
  24   15   16 ar
  25   15   20 ar
  26   16   17 ar
  27   16   31 1
  28   17   18 ar
  29   17   22 1
  30   18   19 ar
  31   18   21 1
  32   19   20 ar
  33   19   32 1
  34   20   33 1

#	End of record

