#	Name: ASD00061033
#	Creating user name:	WinNT
#	Creation time:	15. 06. 2019 18:29

#	Modifying user name:	WinNT
#	Modification time:	15. 06. 2019 18:29

#	Program:	/corina/corina34_cracker 3.40 0067  02.08.2006

@<TRIPOS>MOLECULE
ASD00061033
  45   46    0    0    0
SMALL
NO_CHARGES


@<TRIPOS>ATOM
   1 C1            -0.4192     3.8801    -0.3628 C.ar    
   2 C2            -0.9239     2.5951    -0.4606 C.ar    
   3 C3            -0.0688     1.5069    -0.4722 C.ar    
   4 C4             1.2944     1.6958    -0.3857 C.ar    
   5 C5             1.8122     2.9911    -0.2866 C.ar    
   6 C6             0.9415     4.0855    -0.2761 C.ar    
   7 C7             3.2658     3.2015    -0.1939 C.2     
   8 C8             3.8196     4.5990    -0.0873 C.3     
   9 O9             4.0178     2.2504    -0.2034 O.2     
  10 C10            5.3307     4.5325     0.1434 C.3     
  11 C11            5.9045     5.9257     0.1176 C.ar    
  12 C12            6.8666     6.2597    -0.8171 C.ar    
  13 C13            7.3931     7.5377    -0.8408 C.ar    
  14 C14            6.9570     8.4818     0.0700 C.ar    
  15 C15            5.9942     8.1480     1.0041 C.ar    
  16 C16            5.4647     6.8713     1.0250 C.ar    
  17 C17           -2.4125     2.3796    -0.5545 C.3     
  18 C18           -2.8368     2.3850    -2.0245 C.3     
  19 C19            5.6111     3.8905     1.5036 C.3     
  20 C20            7.0926     3.9216     1.7778 C.2     
  21 O21            7.5107     4.4533     2.7790 O.2     
  22 O22            7.9478     3.3585     0.9098 O.3     
  23 C23            4.8849     4.6560     2.5797 C.2     
  24 O24            5.4725     5.4865     3.2315 O.2     
  25 O25            3.5854     4.4152     2.8139 O.3     
  26 H26           -1.0926     4.7244    -0.3589 H       
  27 H27           -0.4702     0.5072    -0.5487 H       
  28 H28            1.9604     0.8456    -0.3941 H       
  29 H29            1.3339     5.0888    -0.2002 H       
  30 H30            3.6166     5.1417    -1.0105 H       
  31 H31            3.3467     5.1144     0.7487 H       
  32 H32            5.7923     3.9348    -0.6425 H       
  33 H33            7.2073     5.5221    -1.5286 H       
  34 H34            8.1453     7.7984    -1.5706 H       
  35 H35            7.3688     9.4800     0.0519 H       
  36 H36            5.6538     8.8856     1.7158 H       
  37 H37            4.7125     6.6106     1.7547 H       
  38 H38           -2.6698     1.4203    -0.1056 H       
  39 H39           -2.9295     3.1793    -0.0242 H       
  40 H40           -2.5795     3.3443    -2.4734 H       
  41 H41           -2.3198     1.5853    -2.5548 H       
  42 H42           -3.9135     2.2291    -2.0924 H       
  43 H43            5.2646     2.8571     1.4960 H       
  44 H44            8.8916     3.4682     1.0896 H       
  45 H45            3.1626     4.9310     3.5141 H       
@<TRIPOS>BOND
   1    1    2 ar
   2    1    6 ar
   3    1   26 1
   4    2    3 ar
   5    2   17 1
   6    3    4 ar
   7    3   27 1
   8    4    5 ar
   9    4   28 1
  10    5    6 ar
  11    5    7 1
  12    6   29 1
  13    7    8 1
  14    7    9 2
  15    8   10 1
  16    8   30 1
  17    8   31 1
  18   10   11 1
  19   10   19 1
  20   10   32 1
  21   11   12 ar
  22   11   16 ar
  23   12   13 ar
  24   12   33 1
  25   13   14 ar
  26   13   34 1
  27   14   15 ar
  28   14   35 1
  29   15   16 ar
  30   15   36 1
  31   16   37 1
  32   17   18 1
  33   17   38 1
  34   17   39 1
  35   18   40 1
  36   18   41 1
  37   18   42 1
  38   19   20 1
  39   19   23 1
  40   19   43 1
  41   20   21 2
  42   20   22 1
  43   22   44 1
  44   23   24 2
  45   23   25 1
  46   25   45 1

#	End of record

