#	Name: ASD06020094
#	Creating user name:	WinNT
#	Creation time:	15. 06. 2019 21:04

#	Modifying user name:	WinNT
#	Modification time:	15. 06. 2019 21:04

#	Program:	/corina/corina34_cracker 3.40 0067  02.08.2006

@<TRIPOS>MOLECULE
ASD06020094
  31   33    0    0    0
SMALL
NO_CHARGES


@<TRIPOS>ATOM
   1 C1            -0.0184     1.5028     0.0103 C.2     
   2 C2             0.0021    -0.0041     0.0020 C.3     
   3 O3             1.0236     2.1234     0.0037 O.2     
   4 N4            -1.1946     2.1607     0.0195 N.am    
   5 C5            -1.2135     3.5547     0.0271 C.ar    
   6 C6            -2.4358     4.2335     0.0366 C.ar    
   7 C7            -2.4481     5.6335     0.0447 C.ar    
   8 C8            -1.1911     6.2892     0.0431 C.ar    
   9 C9            -0.0498     5.5506     0.0339 C.ar    
  10 N10           -0.0761     4.2273     0.0309 N.ar    
  11 S11           -4.1015     3.6649     0.0415 S.3     
  12 C12           -4.6787     5.3265     0.0539 C.2     
  13 N13           -3.6790     6.1468     0.0537 N.2     
  14 C14           -6.1014     5.7273     0.0628 C.ar    
  15 C15           -6.4493     7.0799     0.0723 C.ar    
  16 C16           -7.7806     7.4471     0.0801 C.ar    
  17 C17           -8.7685     6.4788     0.0784 C.ar    
  18 C18           -8.4314     5.1372     0.0689 C.ar    
  19 C19           -7.1043     4.7554     0.0557 C.ar    
  20 Cl20          -6.6837     3.0712     0.0367 Cl      
  21 Cl21          -5.2111     8.2968     0.0750 Cl      
  22 C22            1.3964    -0.4758    -0.0138 C.1     
  23 N23            2.4724    -0.8398    -0.0261 N.1     
  24 H24           -0.4983    -0.3791     0.8948 H       
  25 H25           -0.5153    -0.3696    -0.8850 H       
  26 H26           -2.0280     1.6644     0.0207 H       
  27 H27           -1.1406     7.3680     0.0488 H       
  28 H28            0.9040     6.0572     0.0324 H       
  29 H29           -8.0510     8.4926     0.0878 H       
  30 H30           -9.8080     6.7717     0.0848 H       
  31 H31           -9.2080     4.3867     0.0677 H       
@<TRIPOS>BOND
   1    1    2 1
   2    1    3 2
   3    1    4 am
   4    2   22 1
   5    2   24 1
   6    2   25 1
   7    4    5 1
   8    4   26 1
   9    5    6 ar
  10    5   10 ar
  11    6    7 ar
  12    6   11 1
  13    7    8 ar
  14    7   13 1
  15    8    9 ar
  16    8   27 1
  17    9   10 ar
  18    9   28 1
  19   11   12 1
  20   12   13 2
  21   12   14 1
  22   14   15 ar
  23   14   19 ar
  24   15   16 ar
  25   15   21 1
  26   16   17 ar
  27   16   29 1
  28   17   18 ar
  29   17   30 1
  30   18   19 ar
  31   18   31 1
  32   19   20 1
  33   22   23 3

#	End of record

