#	Name: ASD02820008
#	Creating user name:	WinNT
#	Creation time:	15. 06. 2019 20:26

#	Modifying user name:	WinNT
#	Modification time:	15. 06. 2019 20:26

#	Program:	/corina/corina34_cracker 3.40 0067  02.08.2006

@<TRIPOS>MOLECULE
ASD02820008
  70   74    0    0    0
SMALL
NO_CHARGES


@<TRIPOS>ATOM
   1 C1            -0.3637     1.2143    -0.1381 C.ar    
   2 C2            -0.2928    -0.1620    -0.0730 C.ar    
   3 C3             0.9357    -0.8040    -0.0658 C.ar    
   4 C4             2.1091    -0.0764    -0.1219 C.ar    
   5 C5             2.0556     1.3053    -0.1856 C.ar    
   6 C6             0.8109     1.9599    -0.1966 C.ar    
   7 C7             0.7928     3.4317    -0.2755 C.2     
   8 N8             3.2053     2.0853    -0.2345 N.pl3   
   9 C9             3.1633     3.4333     0.3452 C.3     
  10 N10            1.9329     4.1177    -0.0516 N.am    
  11 C11            3.2157     3.3321     1.8479 C.ar    
  12 C12            3.7944     2.2275     2.4455 C.ar    
  13 C13            3.8433     2.1321     3.8226 C.ar    
  14 C14            3.3115     3.1461     4.6064 C.ar    
  15 C15            2.7320     4.2533     4.0045 C.ar    
  16 C16            2.6903     4.3464     2.6266 C.ar    
  17 O17           -0.2376     4.0208    -0.5397 O.2     
  18 C18            1.9385     5.5743    -0.2086 C.3     
  19 C19            2.4142     5.9283    -1.5940 C.2     
  20 O20            3.3580     3.0544     5.9615 O.3     
  21 C21            2.7912     4.1354     6.7047 C.3     
  22 C22            4.4732     0.9276     4.4733 C.3     
  23 O23            4.9427     0.0318     3.4637 O.3     
  24 C24            5.5419    -1.1137     3.8850 C.ar    
  25 C25            4.7828    -2.2549     4.0990 C.ar    
  26 C26            5.3907    -3.4186     4.5269 C.ar    
  27 C27            6.7621    -3.4464     4.7425 C.ar    
  28 C28            7.5213    -2.3040     4.5276 C.ar    
  29 C29            6.9128    -1.1423     4.0951 C.ar    
  30 C30            3.2944    -2.2245     3.8650 C.3     
  31 C31            7.7375     0.0963     3.8564 C.3     
  32 N32            7.3794    -4.6267     5.1770 N.am    
  33 C33            6.9223    -5.8217     4.7534 C.2     
  34 O34            6.0412    -5.8738     3.9215 O.2     
  35 C35            7.5060    -7.0933     5.3133 C.3     
  36 C36            3.7311     6.4996    -3.2523 C.2     
  37 C37            2.4962     6.3576    -3.7664 C.2     
  38 C38            1.6469     5.9914    -2.6971 C.2     
  39 O39            3.6751     6.2401    -1.9358 O.3     
  40 H40           -1.3233     1.7095    -0.1481 H       
  41 H41           -1.2015    -0.7437    -0.0268 H       
  42 H42            0.9761    -1.8821    -0.0156 H       
  43 H43            3.0628    -0.5830    -0.1157 H       
  44 H44            4.0174     1.7462    -0.6424 H       
  45 H45            4.0230     4.0041    -0.0058 H       
  46 H46            4.2082     1.4385     1.8351 H       
  47 H47            2.3171     5.0438     4.6124 H       
  48 H48            2.2428     5.2101     2.1574 H       
  49 H49            0.9296     5.9595    -0.0614 H       
  50 H50            2.6076     6.0167     0.5294 H       
  51 H51            1.7351     4.2344     6.4539 H       
  52 H52            2.8942     3.9363     7.7714 H       
  53 H53            3.3120     5.0600     6.4557 H       
  54 H54            5.3104     1.2463     5.0942 H       
  55 H55            3.7334     0.4209     5.0930 H       
  56 H56            4.7995    -4.3069     4.6942 H       
  57 H57            8.5880    -2.3249     4.6951 H       
  58 H58            3.0835    -2.4988     2.8314 H       
  59 H59            2.8067    -2.9321     4.5355 H       
  60 H60            2.9166    -1.2207     4.0589 H       
  61 H61            7.7925     0.6790     4.7759 H       
  62 H62            8.7426    -0.1905     3.5473 H       
  63 H63            7.2738     0.6961     3.0732 H       
  64 H64            8.1358    -4.5838     5.7828 H       
  65 H65            7.3518    -7.1198     6.3920 H       
  66 H66            7.0145    -7.9514     4.8548 H       
  67 H67            8.5740    -7.1285     5.0979 H       
  68 H68            4.6172     6.7756    -3.8045 H       
  69 H69            2.2086     6.4966    -4.7981 H       
  70 H70            0.5858     5.7986    -2.7548 H       
@<TRIPOS>BOND
   1    1    2 ar
   2    1    6 ar
   3    1   40 1
   4    2    3 ar
   5    2   41 1
   6    3    4 ar
   7    3   42 1
   8    4    5 ar
   9    4   43 1
  10    5    6 ar
  11    5    8 1
  12    6    7 1
  13    7   10 am
  14    7   17 2
  15    8    9 1
  16    8   44 1
  17    9   10 1
  18    9   11 1
  19    9   45 1
  20   10   18 1
  21   11   12 ar
  22   11   16 ar
  23   12   13 ar
  24   12   46 1
  25   13   14 ar
  26   13   22 1
  27   14   15 ar
  28   14   20 1
  29   15   16 ar
  30   15   47 1
  31   16   48 1
  32   18   19 1
  33   18   49 1
  34   18   50 1
  35   19   39 1
  36   19   38 2
  37   20   21 1
  38   21   51 1
  39   21   52 1
  40   21   53 1
  41   22   23 1
  42   22   54 1
  43   22   55 1
  44   23   24 1
  45   24   25 ar
  46   24   29 ar
  47   25   26 ar
  48   25   30 1
  49   26   27 ar
  50   26   56 1
  51   27   28 ar
  52   27   32 1
  53   28   29 ar
  54   28   57 1
  55   29   31 1
  56   30   58 1
  57   30   59 1
  58   30   60 1
  59   31   61 1
  60   31   62 1
  61   31   63 1
  62   32   33 am
  63   32   64 1
  64   33   34 2
  65   33   35 1
  66   35   65 1
  67   35   66 1
  68   35   67 1
  69   36   37 2
  70   36   39 1
  71   36   68 1
  72   37   38 1
  73   37   69 1
  74   38   70 1

#	End of record

