#	Name: ASD06590034
#	Creating user name:	WinNT
#	Creation time:	15. 06. 2019 21:06

#	Modifying user name:	WinNT
#	Modification time:	15. 06. 2019 21:06

#	Program:	/corina/corina34_cracker 3.40 0067  02.08.2006

@<TRIPOS>MOLECULE
ASD06590034
 275  275    0    0    0
SMALL
NO_CHARGES


@<TRIPOS>ATOM
   1 C1            -3.4067     0.3470     1.3007 C.2     
   2 O2            -3.4329    -0.8491     1.4994 O.2     
   3 N3            -1.0080     0.2251     1.6697 N.3     
   4 C4            -2.0875     1.0507     1.1121 C.3     
   5 C5            -1.8383     1.2758    -0.3806 C.3     
   6 C6            -0.5621     2.0990    -0.5662 C.3     
   7 C7            -0.3130     2.3241    -2.0589 C.3     
   8 N8             0.9091     3.1123    -2.2366 N.pl3   
   9 C9             1.3368     3.4414    -3.5007 C.2     
  10 N10            0.7268     2.9531    -4.5420 N.2     
  11 N11            2.4142     4.2903    -3.6662 N.am    
  12 C12           -6.9286     1.1470     0.7358 C.2     
  13 O13           -6.6592     2.1781     0.1568 O.2     
  14 N14           -4.5576     1.0459     1.2430 N.am    
  15 C15           -5.8403     0.3608     1.4203 C.3     
  16 C16           -6.1555     0.2468     2.9132 C.3     
  17 C17           -5.1186    -0.6550     3.5859 C.3     
  18 C18           -5.4290    -0.7673     5.0563 C.2     
  19 O19           -6.3855    -0.1836     5.5204 O.2     
  20 N20           -4.6438    -1.5164     5.8555 N.am    
  21 C21          -10.5841     1.1634     0.7515 C.2     
  22 O22          -10.6392     0.3842     1.6792 O.2     
  23 N23           -8.2012     0.7043     0.7670 N.am    
  24 C24           -9.2591     1.4686     0.1015 C.3     
  25 C25           -9.3152     1.0808    -1.3775 C.3     
  26 C26           -8.0160     1.5044    -2.0654 C.3     
  27 C27           -8.0712     1.1225    -3.5222 C.2     
  28 O28           -9.0531     0.5662    -3.9664 O.2     
  29 N29           -7.0295     1.3990    -4.3313 N.am    
  30 C30          -14.1082     1.7100    -0.0518 C.2     
  31 O31          -13.8504     2.0980    -1.1715 O.2     
  32 N32          -11.7077     1.7564     0.3018 N.am    
  33 C33          -12.9958     1.4597     0.9336 C.3     
  34 C34          -13.1842     2.3613     2.1553 C.3     
  35 C35          -12.1443     2.0250     3.1929 C.ar    
  36 C36          -10.9261     2.6790     3.1863 C.ar    
  37 C37           -9.9710     2.3723     4.1361 C.ar    
  38 C38          -10.2351     1.4075     5.0974 C.ar    
  39 O39           -9.2974     1.1043     6.0331 O.3     
  40 C40          -11.4584     0.7531     5.1021 C.ar    
  41 C41          -12.4121     1.0671     4.1533 C.ar    
  42 C42          -17.7451     2.0461     0.1000 C.2     
  43 O43          -17.7495     2.0558     1.3127 O.2     
  44 N44          -15.3894     1.5027     0.3114 N.am    
  45 C45          -16.4708     1.7460    -0.6465 C.3     
  46 C46          -16.6702     0.5037    -1.5170 C.3     
  47 C47          -15.4202     0.2713    -2.3681 C.3     
  48 C48          -15.6196    -0.9710    -3.2386 C.3     
  49 N49          -14.4227    -1.1935    -4.0536 N.pl3   
  50 C50          -14.3695    -2.2594    -4.9203 C.2     
  51 N51          -13.3046    -2.4573    -5.6454 N.2     
  52 N52          -15.4396    -3.1165    -5.0222 N.pl3   
  53 C53          -21.3018     2.2467    -0.7200 C.2     
  54 O54          -21.1276     1.7986    -1.8334 O.2     
  55 N55          -18.8798     2.3037    -0.5801 N.am    
  56 C56          -20.1185     2.5955     0.1456 C.3     
  57 C57          -20.1650     4.0837     0.4974 C.3     
  58 C58          -19.0357     4.4120     1.4761 C.3     
  59 C59          -19.0822     5.9002     1.8280 C.3     
  60 C60          -17.9529     6.2285     2.8066 C.3     
  61 N61          -17.9976     7.6574     3.1444 N.3     
  62 C62          -24.8960     2.9118    -0.6729 C.2     
  63 O63          -24.7947     3.7005     0.2429 O.2     
  64 N64          -22.5537     2.4328    -0.2568 N.am    
  65 C65          -23.7040     2.0937    -1.0982 C.3     
  66 C66          -24.0262     0.6058    -0.9461 C.3     
  67 C67          -22.8649    -0.2261    -1.4939 C.3     
  68 C68          -23.1307    -1.7094    -1.2294 C.3     
  69 C69          -22.7357     0.0082    -3.0004 C.3     
  70 C70          -28.4956     2.9013    -1.2076 C.2     
  71 O71          -28.5086     1.9069    -1.9018 O.2     
  72 N72          -26.0747     2.7671    -1.3103 N.am    
  73 C73          -27.2026     3.6385    -0.9712 C.3     
  74 C74          -27.1616     4.8907    -1.8493 C.3     
  75 C75          -28.3120     5.8224    -1.4630 C.3     
  76 C76          -28.1154     6.3063    -0.0249 C.3     
  77 C77          -28.3329     7.0258    -2.4076 C.3     
  78 C78          -32.0608     3.4762    -0.6406 C.2     
  79 O79          -31.8977     4.6645    -0.4610 O.2     
  80 N80          -29.6375     3.3472    -0.6476 N.am    
  81 C81          -30.8690     2.5633    -0.7717 C.3     
  82 C82          -30.9133     1.5049     0.3322 C.3     
  83 C83          -29.7742     0.5046     0.1256 C.3     
  84 C84          -29.8185    -0.5539     1.2296 C.3     
  85 C85          -28.6794    -1.5542     1.0230 C.3     
  86 N86          -28.7219    -2.5705     2.0829 N.3     
  87 C87          -35.6550     3.0679    -0.1131 C.2     
  88 O88          -35.5449     1.8795     0.1027 O.2     
  89 N89          -33.3081     2.9720    -0.7227 N.am    
  90 C90          -34.4667     3.8594    -0.5952 C.3     
  91 C91          -34.7859     4.4803    -1.9567 C.3     
  92 O92          -35.1934     3.4544    -2.8643 O.3     
  93 C93          -39.2652     3.5962     0.1121 C.2     
  94 O94          -39.2106     4.6259    -0.5265 O.2     
  95 N95          -36.8401     3.6805     0.0782 N.am    
  96 C96          -37.9953     2.9111     0.5469 C.3     
  97 C97          -37.9620     2.8201     2.0738 C.3     
  98 C98          -36.6194     2.2384     2.5209 C.3     
  99 O99          -38.1253     4.1252     2.6324 O.3     
 100 C100         -42.0617     4.7943     1.0131 C.2     
 101 O101         -41.3630     4.9772     1.9817 O.2     
 102 N102         -40.4615     3.0647     0.4327 N.am    
 103 C103         -41.6960     3.7308     0.0100 C.3     
 104 C104         -42.8257     2.7027    -0.0781 C.3     
 105 C105         -42.5114     1.6931    -1.1840 C.3     
 106 C106         -43.5767     0.5950    -1.1898 C.3     
 107 C107         -42.5056     2.4053    -2.5381 C.3     
 108 O108         -43.1638     5.5385     0.8305 O.3     
 109 C109           2.9706     4.8897    -2.5950 C.2     
 110 O110           2.5806     4.6205    -1.4789 O.2     
 111 C111          15.0979    16.7157     5.4215 C.3     
 112 C112          13.9741    15.6954     5.6137 C.3     
 113 C113          13.5236    15.1698     4.2492 C.3     
 114 C114          12.3998    14.1495     4.4414 C.3     
 115 C115          11.9493    13.6239     3.0770 C.3     
 116 C116          10.8254    12.6037     3.2692 C.3     
 117 C117          10.3749    12.0781     1.9047 C.3     
 118 C118           9.2511    11.0578     2.0969 C.3     
 119 C119           8.8006    10.5322     0.7325 C.3     
 120 C120           7.6767     9.5120     0.9247 C.3     
 121 C121           7.2262     8.9864    -0.4398 C.3     
 122 C122           6.1024     7.9661    -0.2476 C.3     
 123 C123           5.6519     7.4405    -1.6120 C.3     
 124 C124           4.5281     6.4202    -1.4198 C.3     
 125 C125           4.0775     5.8947    -2.7843 C.3     
 126 H126          -1.1148     0.1156     2.6670 H       
 127 H127          -0.9646    -0.6721     1.2100 H       
 128 H128          -2.1118     2.0120     1.6254 H       
 129 H129          -1.7255     0.3132    -0.8794 H       
 130 H130          -2.6829     1.8123    -0.8131 H       
 131 H131          -0.6749     3.0616    -0.0675 H       
 132 H132           0.2824     1.5625    -0.1337 H       
 133 H133          -0.2001     1.3615    -2.5577 H       
 134 H134          -1.1575     2.8606    -2.4914 H       
 135 H135           1.4163     3.4020    -1.4622 H       
 136 H136           0.9813     3.2413    -5.4326 H       
 137 H137           2.7702     4.4548    -4.5534 H       
 138 H138          -4.5366     2.0026     1.0841 H       
 139 H139          -5.7830    -0.6363     0.9839 H       
 140 H140          -6.1252     1.2371     3.3676 H       
 141 H141          -7.1490    -0.1823     3.0430 H       
 142 H142          -5.1489    -1.6453     3.1315 H       
 143 H143          -4.1251    -0.2259     3.4561 H       
 144 H144          -3.8789    -1.9833     5.4843 H       
 145 H145          -4.8436    -1.5887     6.8019 H       
 146 H146          -8.4166    -0.1203     1.2300 H       
 147 H147          -9.0480     2.5343     0.1899 H       
 148 H148          -9.4378     0.0013    -1.4656 H       
 149 H149         -10.1583     1.5822    -1.8528 H       
 150 H150          -7.8934     2.5839    -1.9773 H       
 151 H151          -7.1729     1.0030    -1.5901 H       
 152 H152          -6.2442     1.8439    -3.9760 H       
 153 H153          -7.0650     1.1532    -5.2690 H       
 154 H154         -11.6636     2.3796    -0.4402 H       
 155 H155         -13.0152     0.4156     1.2461 H       
 156 H156         -13.0762     3.4042     1.8574 H       
 157 H157         -14.1785     2.2038     2.5732 H       
 158 H158         -10.7209     3.4300     2.4378 H       
 159 H159          -9.0193     2.8829     4.1301 H       
 160 H160          -9.3569     1.6384     6.8370 H       
 161 H161         -11.6663     0.0014     5.8492 H       
 162 H162         -13.3662     0.5611     4.1593 H       
 163 H163         -15.5955     1.1923     1.2070 H       
 164 H164         -16.2117     2.5951    -1.2790 H       
 165 H165         -16.8416    -0.3633    -0.8790 H       
 166 H166         -17.5313     0.6511    -2.1688 H       
 167 H167         -15.2487     1.1383    -3.0061 H       
 168 H168         -14.5591     0.1239    -1.7163 H       
 169 H169         -15.7910    -1.8380    -2.6006 H       
 170 H170         -16.4807    -0.8236    -3.8904 H       
 171 H171         -13.6677    -0.5888    -3.9817 H       
 172 H172         -13.2672    -3.2093    -6.2569 H       
 173 H173         -16.2321    -2.9692    -4.4826 H       
 174 H174         -15.4021    -3.8685    -5.6337 H       
 175 H175         -18.8762     2.2960    -1.5501 H       
 176 H176         -20.1512     2.0045     1.0609 H       
 177 H177         -20.0431     4.6756    -0.4098 H       
 178 H178         -21.1247     4.3184     0.9581 H       
 179 H179         -19.1576     3.8202     2.3833 H       
 180 H180         -18.0761     4.1774     1.0155 H       
 181 H181         -18.9603     6.4921     0.9208 H       
 182 H182         -20.0419     6.1349     2.2886 H       
 183 H183         -18.0748     5.6367     3.7138 H       
 184 H184         -16.9933     5.9939     2.3460 H       
 185 H185         -17.2610     7.8995     3.7901 H       
 186 H186         -17.9514     8.2272     2.3130 H       
 187 H187         -22.6931     2.7912     0.6337 H       
 188 H188         -23.4682     2.3098    -2.1402 H       
 189 H189         -24.1750     0.3722     0.1081 H       
 190 H190         -24.9344     0.3720    -1.5018 H       
 191 H191         -21.9401     0.0711    -0.9994 H       
 192 H192         -24.0555    -2.0066    -1.7239 H       
 193 H193         -22.3033    -2.3021    -1.6197 H       
 194 H194         -23.2227    -1.8763    -0.1562 H       
 195 H195         -23.6605    -0.2890    -3.4949 H       
 196 H196         -22.5463     1.0649    -3.1888 H       
 197 H197         -21.9083    -0.5845    -3.3906 H       
 198 H198         -26.1763     2.0861    -1.9934 H       
 199 H199         -27.1358     3.9278     0.0776 H       
 200 H200         -26.2121     5.4059    -1.7034 H       
 201 H201         -27.2622     4.6039    -2.8961 H       
 202 H202         -29.2568     5.2842    -1.5393 H       
 203 H203         -28.8843     7.0390     0.2203 H       
 204 H204         -28.1903     5.4592     0.6569 H       
 205 H205         -27.1317     6.7655     0.0727 H       
 206 H206         -28.4729     6.6811    -3.4321 H       
 207 H207         -29.1525     7.6896    -2.1324 H       
 208 H208         -27.3882     7.5641    -2.3313 H       
 209 H209         -29.6441     4.1870    -0.1623 H       
 210 H210         -30.8915     2.0740    -1.7454 H       
 211 H211         -30.8013     1.9876     1.3031 H       
 212 H212         -31.8683     0.9808     0.2949 H       
 213 H213         -29.8861     0.0219    -0.8452 H       
 214 H214         -28.8192     1.0287     0.1629 H       
 215 H215         -29.7066    -0.0712     2.2004 H       
 216 H216         -30.7735    -1.0780     1.1923 H       
 217 H217         -28.7913    -2.0369     0.0521 H       
 218 H218         -27.7244    -1.0301     1.0603 H       
 219 H219         -29.6216    -3.0264     2.1108 H       
 220 H220         -27.9789    -3.2434     1.9686 H       
 221 H221         -33.4385     2.0216    -0.8663 H       
 222 H222         -34.2419     4.6498     0.1208 H       
 223 H223         -35.5904     5.2071    -1.8449 H       
 224 H224         -33.8979     4.9782    -2.3461 H       
 225 H225         -35.4120     3.7765    -3.7495 H       
 226 H226         -36.9282     4.6310    -0.0944 H       
 227 H227         -37.9601     1.9078     0.1223 H       
 228 H228         -38.7702     2.1743     2.4171 H       
 229 H229         -35.8112     2.8842     2.1777 H       
 230 H230         -36.5957     2.1736     3.6087 H       
 231 H231         -36.4949     1.2428     2.0948 H       
 232 H232         -37.4398     4.7544     2.3690 H       
 233 H233         -40.5051     2.2412     0.9434 H       
 234 H234         -41.5450     4.1894    -0.9672 H       
 235 H235         -42.9175     2.1812     0.8746 H       
 236 H236         -43.7626     3.2111    -0.3058 H       
 237 H237         -41.5326     1.2489    -1.0029 H       
 238 H238         -44.5555     1.0392    -1.3709 H       
 239 H239         -43.3528    -0.1243    -1.9776 H       
 240 H240         -43.5808     0.0876    -0.2251 H       
 241 H241         -41.7466     3.1876    -2.5339 H       
 242 H242         -42.2817     1.6860    -3.3259 H       
 243 H243         -43.4843     2.8495    -2.7192 H       
 244 H244         -43.3573     6.2082     1.5006 H       
 245 H245          15.4189    17.0901     6.3936 H       
 246 H246          15.9399    16.2386     4.9198 H       
 247 H247          14.7357    17.5451     4.8142 H       
 248 H248          14.3364    14.8659     6.2210 H       
 249 H249          13.1322    16.1724     6.1154 H       
 250 H250          13.1613    15.9993     3.6419 H       
 251 H251          14.3655    14.6928     3.7476 H       
 252 H252          12.7620    13.3200     5.0487 H       
 253 H253          11.5578    14.6266     4.9431 H       
 254 H254          11.5870    14.4534     2.4697 H       
 255 H255          12.7912    13.1469     2.5753 H       
 256 H256          11.1877    11.7742     3.8765 H       
 257 H257           9.9835    13.0807     3.7708 H       
 258 H258          10.0126    12.9076     1.2974 H       
 259 H259          11.2169    11.6011     1.4031 H       
 260 H260           9.6134    10.2283     2.7042 H       
 261 H261           8.4091    11.5348     2.5986 H       
 262 H262           8.4383    11.3617     0.1252 H       
 263 H263           9.6425    10.0552     0.2308 H       
 264 H264           8.0390     8.6825     1.5320 H       
 265 H265           6.8348     9.9890     1.4263 H       
 266 H266           6.8640     9.8159    -1.0471 H       
 267 H267           8.0682     8.5093    -0.9414 H       
 268 H268           6.4647     7.1366     0.3597 H       
 269 H269           5.2605     8.4431     0.2541 H       
 270 H270           5.2896     8.2700    -2.2193 H       
 271 H271           6.4938     6.9635    -2.1137 H       
 272 H272           4.8903     5.5908    -0.8125 H       
 273 H273           3.6861     6.8973    -0.9182 H       
 274 H274           4.9195     5.4176    -3.2859 H       
 275 H275           3.7153     6.7242    -3.3916 H       
@<TRIPOS>BOND
   1    1    2 2
   2    1    4 1
   3    1   14 am
   4    3    4 1
   5    3  126 1
   6    3  127 1
   7    4    5 1
   8    4  128 1
   9    5    6 1
  10    5  129 1
  11    5  130 1
  12    6    7 1
  13    6  131 1
  14    6  132 1
  15    7    8 1
  16    7  133 1
  17    7  134 1
  18    8    9 1
  19    8  135 1
  20    9   10 2
  21    9   11 1
  22   10  136 1
  23   11  109 am
  24   11  137 1
  25   12   13 2
  26   12   15 1
  27   12   23 am
  28   14   15 1
  29   14  138 1
  30   15   16 1
  31   15  139 1
  32   16   17 1
  33   16  140 1
  34   16  141 1
  35   17   18 1
  36   17  142 1
  37   17  143 1
  38   18   19 2
  39   18   20 am
  40   20  144 1
  41   20  145 1
  42   21   22 2
  43   21   24 1
  44   21   32 am
  45   23   24 1
  46   23  146 1
  47   24   25 1
  48   24  147 1
  49   25   26 1
  50   25  148 1
  51   25  149 1
  52   26   27 1
  53   26  150 1
  54   26  151 1
  55   27   28 2
  56   27   29 am
  57   29  152 1
  58   29  153 1
  59   30   31 2
  60   30   33 1
  61   30   44 am
  62   32   33 1
  63   32  154 1
  64   33   34 1
  65   33  155 1
  66   34   35 1
  67   34  156 1
  68   34  157 1
  69   35   36 ar
  70   35   41 ar
  71   36   37 ar
  72   36  158 1
  73   37   38 ar
  74   37  159 1
  75   38   39 1
  76   38   40 ar
  77   39  160 1
  78   40   41 ar
  79   40  161 1
  80   41  162 1
  81   42   43 2
  82   42   45 1
  83   42   55 am
  84   44   45 1
  85   44  163 1
  86   45   46 1
  87   45  164 1
  88   46   47 1
  89   46  165 1
  90   46  166 1
  91   47   48 1
  92   47  167 1
  93   47  168 1
  94   48   49 1
  95   48  169 1
  96   48  170 1
  97   49   50 1
  98   49  171 1
  99   50   51 2
 100   50   52 1
 101   51  172 1
 102   52  173 1
 103   52  174 1
 104   53   54 2
 105   53   56 1
 106   53   64 am
 107   55   56 1
 108   55  175 1
 109   56   57 1
 110   56  176 1
 111   57   58 1
 112   57  177 1
 113   57  178 1
 114   58   59 1
 115   58  179 1
 116   58  180 1
 117   59   60 1
 118   59  181 1
 119   59  182 1
 120   60   61 1
 121   60  183 1
 122   60  184 1
 123   61  185 1
 124   61  186 1
 125   62   63 2
 126   62   65 1
 127   62   72 am
 128   64   65 1
 129   64  187 1
 130   65   66 1
 131   65  188 1
 132   66   67 1
 133   66  189 1
 134   66  190 1
 135   67   68 1
 136   67   69 1
 137   67  191 1
 138   68  192 1
 139   68  193 1
 140   68  194 1
 141   69  195 1
 142   69  196 1
 143   69  197 1
 144   70   71 2
 145   70   73 1
 146   70   80 am
 147   72   73 1
 148   72  198 1
 149   73   74 1
 150   73  199 1
 151   74   75 1
 152   74  200 1
 153   74  201 1
 154   75   76 1
 155   75   77 1
 156   75  202 1
 157   76  203 1
 158   76  204 1
 159   76  205 1
 160   77  206 1
 161   77  207 1
 162   77  208 1
 163   78   79 2
 164   78   81 1
 165   78   89 am
 166   80   81 1
 167   80  209 1
 168   81   82 1
 169   81  210 1
 170   82   83 1
 171   82  211 1
 172   82  212 1
 173   83   84 1
 174   83  213 1
 175   83  214 1
 176   84   85 1
 177   84  215 1
 178   84  216 1
 179   85   86 1
 180   85  217 1
 181   85  218 1
 182   86  219 1
 183   86  220 1
 184   87   88 2
 185   87   90 1
 186   87   95 am
 187   89   90 1
 188   89  221 1
 189   90   91 1
 190   90  222 1
 191   91   92 1
 192   91  223 1
 193   91  224 1
 194   92  225 1
 195   93   94 2
 196   93   96 1
 197   93  102 am
 198   95   96 1
 199   95  226 1
 200   96   97 1
 201   96  227 1
 202   97   98 1
 203   97   99 1
 204   97  228 1
 205   98  229 1
 206   98  230 1
 207   98  231 1
 208   99  232 1
 209  100  101 2
 210  100  103 1
 211  100  108 1
 212  102  103 1
 213  102  233 1
 214  103  104 1
 215  103  234 1
 216  104  105 1
 217  104  235 1
 218  104  236 1
 219  105  106 1
 220  105  107 1
 221  105  237 1
 222  106  238 1
 223  106  239 1
 224  106  240 1
 225  107  241 1
 226  107  242 1
 227  107  243 1
 228  108  244 1
 229  109  110 2
 230  109  125 1
 231  111  112 1
 232  111  245 1
 233  111  246 1
 234  111  247 1
 235  112  113 1
 236  112  248 1
 237  112  249 1
 238  113  114 1
 239  113  250 1
 240  113  251 1
 241  114  115 1
 242  114  252 1
 243  114  253 1
 244  115  116 1
 245  115  254 1
 246  115  255 1
 247  116  117 1
 248  116  256 1
 249  116  257 1
 250  117  118 1
 251  117  258 1
 252  117  259 1
 253  118  119 1
 254  118  260 1
 255  118  261 1
 256  119  120 1
 257  119  262 1
 258  119  263 1
 259  120  121 1
 260  120  264 1
 261  120  265 1
 262  121  122 1
 263  121  266 1
 264  121  267 1
 265  122  123 1
 266  122  268 1
 267  122  269 1
 268  123  124 1
 269  123  270 1
 270  123  271 1
 271  124  125 1
 272  124  272 1
 273  124  273 1
 274  125  274 1
 275  125  275 1

#	End of record

