#	Name: ASD01810714
#	Creating user name:	WinNT
#	Creation time:	15. 06. 2019 19:25

#	Modifying user name:	WinNT
#	Modification time:	15. 06. 2019 19:25

#	Program:	/corina/corina34_cracker 3.40 0067  02.08.2006

@<TRIPOS>MOLECULE
ASD01810714
  38   38    0    0    0
SMALL
NO_CHARGES


@<TRIPOS>ATOM
   1 N1            -0.0833     1.3962     0.0869 N.am    
   2 N2            -0.0425     0.0322     0.0266 N.3     
   3 C3             1.0632     2.1037     0.1245 C.2     
   4 O4             1.0269     3.3171     0.1782 O.2     
   5 O5             2.2488     1.4660     0.1026 O.3     
   6 C6            -1.7297    -1.3004    -1.1491 C.3     
   7 C7            -1.3910    -0.5402     0.1358 C.3     
   8 C8            -2.4101     0.5854     0.3376 C.3     
   9 C9            -3.8184    -0.0159     0.3720 C.3     
  10 C10           -4.0634    -0.7964    -0.9220 C.3     
  11 O11           -3.0632    -1.8071    -1.0638 O.3     
  12 C12           -1.6191    -0.3540    -2.3461 C.3     
  13 C13            3.4423     2.2918     0.1457 C.3     
  14 C14            3.4441     3.1188     1.4329 C.3     
  15 C15            4.6830     1.3971     0.1127 C.3     
  16 C16            3.4575     3.2297    -1.0631 C.3     
  17 H17           -0.9375     1.8558     0.0987 H       
  18 H18            0.4151    -0.2789    -0.8172 H       
  19 H19           -1.0333    -2.1294    -1.2754 H       
  20 H20           -1.4301    -1.2234     0.9843 H       
  21 H21           -2.2082     1.0955     1.2795 H       
  22 H22           -2.3368     1.2955    -0.4861 H       
  23 H23           -3.9066    -0.6885     1.2253 H       
  24 H24           -4.5539     0.7837     0.4599 H       
  25 H25           -5.0482    -1.2622    -0.8847 H       
  26 H26           -4.0152    -0.1155    -1.7718 H       
  27 H27           -0.6204     0.0817    -2.3738 H       
  28 H28           -1.7988    -0.9097    -3.2665 H       
  29 H29           -2.3595     0.4403    -2.2509 H       
  30 H30            3.4332     2.4507     2.2941 H       
  31 H31            4.3401     3.7387     1.4653 H       
  32 H32            2.5602     3.7563     1.4565 H       
  33 H33            4.6817     0.8079    -0.8044 H       
  34 H34            5.5790     2.0170     0.1450 H       
  35 H35            4.6721     0.7289     0.9738 H       
  36 H36            2.5737     3.8671    -1.0395 H       
  37 H37            4.3535     3.8496    -1.0307 H       
  38 H38            3.4563     2.6405    -1.9801 H       
@<TRIPOS>BOND
   1    1    2 1
   2    1    3 am
   3    1   17 1
   4    2    7 1
   5    2   18 1
   6    3    4 2
   7    3    5 1
   8    5   13 1
   9    6    7 1
  10    6   11 1
  11    6   12 1
  12    6   19 1
  13    7    8 1
  14    7   20 1
  15    8    9 1
  16    8   21 1
  17    8   22 1
  18    9   10 1
  19    9   23 1
  20    9   24 1
  21   10   11 1
  22   10   25 1
  23   10   26 1
  24   12   27 1
  25   12   28 1
  26   12   29 1
  27   13   14 1
  28   13   16 1
  29   13   15 1
  30   14   30 1
  31   14   31 1
  32   14   32 1
  33   15   33 1
  34   15   34 1
  35   15   35 1
  36   16   36 1
  37   16   37 1
  38   16   38 1

#	End of record

