#	Name: ASD00311022
#	Creating user name:	WinNT
#	Creation time:	15. 06. 2019 18:34

#	Modifying user name:	WinNT
#	Modification time:	15. 06. 2019 18:34

#	Program:	/corina/corina34_cracker 3.40 0067  02.08.2006

@<TRIPOS>MOLECULE
ASD00311022
  37   39    0    0    0
SMALL
NO_CHARGES


@<TRIPOS>ATOM
   1 C1            -0.0167     1.3797     0.0096 C.ar    
   2 C2             0.0021    -0.0041     0.0020 C.ar    
   3 C3             1.2062    -0.6860    -0.0127 C.ar    
   4 C4             2.3967     0.0105    -0.0198 C.ar    
   5 C5             2.3851     1.4069    -0.0127 C.ar    
   6 C6             1.1665     2.0886     0.0021 C.ar    
   7 C7             3.6414     3.6251    -0.0127 C.2     
   8 C8             3.6574     2.1602    -0.0202 C.2     
   9 C9             6.0059     6.4868    -0.0194 C.ar    
  10 C10            4.7862     5.7849    -0.0121 C.ar    
  11 C11            4.8023     4.3124    -0.0196 C.2     
  12 C12            6.0030     7.8495    -0.0126 C.ar    
  13 C13            4.7606     8.5149     0.0019 C.ar    
  14 C14            3.5657     7.7493     0.0092 C.ar    
  15 N15            3.6263     6.4189     0.0020 N.ar    
  16 O16            4.7178     1.5634    -0.0328 O.2     
  17 C17            2.3221     8.4202     0.0238 C.ar    
  18 C18            2.2920     9.7858     0.0305 C.ar    
  19 C19            3.4689    10.5288     0.0232 C.ar    
  20 C20            4.6860     9.9156     0.0100 C.ar    
  21 O21            1.1638     7.7114     0.0306 O.3     
  22 C22           -1.2947    -0.7718     0.0103 C.3     
  23 H23           -0.9599     1.9056     0.0169 H       
  24 H24            1.2137    -1.7659    -0.0182 H       
  25 H25            3.3358    -0.5228    -0.0305 H       
  26 H26            1.1504     3.1685     0.0074 H       
  27 H27            2.7003     4.1548    -0.0016 H       
  28 H28            6.9414     5.9471    -0.0261 H       
  29 H29            5.7435     3.7827    -0.0307 H       
  30 H30            6.9289     8.4054    -0.0177 H       
  31 H31            1.3405    10.2967     0.0413 H       
  32 H32            3.4168    11.6076     0.0287 H       
  33 H33            5.5901    10.5063     0.0044 H       
  34 H34            0.8363     7.5017     0.9160 H       
  35 H35           -1.6171    -0.9514    -1.0154 H       
  36 H36           -1.1490    -1.7255     0.5176 H       
  37 H37           -2.0558    -0.1939     0.5345 H       
@<TRIPOS>BOND
   1    1    2 ar
   2    1    6 ar
   3    1   23 1
   4    2    3 ar
   5    2   22 1
   6    3    4 ar
   7    3   24 1
   8    4    5 ar
   9    4   25 1
  10    5    6 ar
  11    5    8 1
  12    6   26 1
  13    7    8 1
  14    7   11 2
  15    7   27 1
  16    8   16 2
  17    9   10 ar
  18    9   12 ar
  19    9   28 1
  20   10   11 1
  21   10   15 ar
  22   11   29 1
  23   12   13 ar
  24   12   30 1
  25   13   14 ar
  26   13   20 ar
  27   14   15 ar
  28   14   17 ar
  29   17   18 ar
  30   17   21 1
  31   18   19 ar
  32   18   31 1
  33   19   20 ar
  34   19   32 1
  35   20   33 1
  36   21   34 1
  37   22   35 1
  38   22   36 1
  39   22   37 1

#	End of record

