#	Name: ASD04880737
#	Creating user name:	WinNT
#	Creation time:	15. 06. 2019 20:53

#	Modifying user name:	WinNT
#	Modification time:	15. 06. 2019 20:53

#	Program:	/corina/corina34_cracker 3.40 0067  02.08.2006

@<TRIPOS>MOLECULE
ASD04880737
  91   96    0    0    0
SMALL
NO_CHARGES


@<TRIPOS>ATOM
   1 C1             0.0077     1.3660     0.0078 C.ar    
   2 C2            -1.1968     2.0429     0.0698 C.ar    
   3 C3            -1.2154     3.4247     0.1141 C.ar    
   4 C4            -0.0301     4.1338     0.0965 C.ar    
   5 C5             1.1812     3.4572     0.0343 C.ar    
   6 C6             1.1962     2.0687    -0.0101 C.ar    
   7 C7            -0.0514     5.6399     0.1443 C.3     
   8 N8             2.3816     4.1711     0.0158 N.3     
   9 C9             3.1849     3.8816     1.2118 C.3     
  10 C10            3.1439     3.8882    -1.2083 C.3     
  11 C11            4.4103     4.7474    -1.2274 C.3     
  12 N12            5.2137     4.4578    -0.0315 N.3     
  13 C13            4.4514     4.7408     1.1927 C.3     
  14 C14            6.4103     5.1695    -0.0498 C.ar    
  15 C15            6.6420     6.1604     0.8958 C.ar    
  16 C16            7.8266     6.8686     0.8810 C.ar    
  17 C17            8.7974     6.5883    -0.0882 C.ar    
  18 C18            8.5636     5.5902    -1.0398 C.ar    
  19 C19            7.3786     4.8815    -1.0165 C.ar    
  20 N20            7.1439     3.8768    -1.9660 N.am    
  21 C21            7.6252     4.0073    -3.2181 C.2     
  22 C22            7.4878     2.8986    -4.1797 C.2     
  23 O23            8.1729     5.0399    -3.5546 O.2     
  24 C24            6.9740     0.9822    -5.0306 C.2     
  25 O25            7.5990     1.6902    -5.9819 O.3     
  26 C26            7.9281     2.8860    -5.4675 C.2     
  27 N27            6.9023     1.6930    -3.9452 N.2     
  28 C28            6.4385    -0.4169    -5.1943 C.3     
  29 C29            5.3724    -0.6442    -6.2678 C.3     
  30 C30            6.7955    -1.1639    -6.4809 C.3     
  31 F31            8.0492     7.8324     1.8012 F       
  32 C32           10.0627     7.3437    -0.1061 C.2     
  33 O33           10.2645     8.2116     0.7217 O.2     
  34 N34           10.9962     7.0728    -1.0397 N.am    
  35 C35           12.2540     7.8237    -1.0574 C.3     
  36 C36           12.8377     7.8075    -2.4715 C.3     
  37 C37           14.1513     8.5917    -2.4901 C.3     
  38 C38           15.1442     7.9466    -1.5210 C.3     
  39 C39           14.5604     7.9628    -0.1069 C.3     
  40 C40           13.2468     7.1786    -0.0884 C.3     
  41 C41           14.7263     8.5758    -3.8830 C.2     
  42 O42           14.1451     7.9966    -4.7699 O.2     
  43 O43           15.8842     9.2050    -4.1383 O.3     
  44 C44           16.3785     9.1481    -5.5024 C.3     
  45 C45           15.3510     9.7795    -6.4440 C.3     
  46 C46           17.6984     9.9158    -5.5990 C.3     
  47 C47           16.6069     7.6888    -5.9016 C.3     
  48 H48            0.0188     0.2865    -0.0222 H       
  49 H49           -2.1250     1.4909     0.0834 H       
  50 H50           -2.1577     3.9503     0.1622 H       
  51 H51            2.1365     1.5395    -0.0582 H       
  52 H52           -0.0220     5.9709     1.1824 H       
  53 H53            0.8157     6.0326    -0.3869 H       
  54 H54           -0.9631     6.0056    -0.3280 H       
  55 H55            2.6034     4.1109     2.1048 H       
  56 H56            3.4609     2.8271     1.2180 H       
  57 H57            3.4193     2.8338    -1.2296 H       
  58 H58            2.5324     4.1223    -2.0797 H       
  59 H59            4.9918     4.5181    -2.1204 H       
  60 H60            4.1344     5.8018    -1.2336 H       
  61 H61            4.1759     5.7951     1.2140 H       
  62 H62            5.0629     4.5066     2.0641 H       
  63 H63            5.8937     6.3772     1.6438 H       
  64 H64            9.3101     5.3716    -1.7891 H       
  65 H65            6.6351     3.0879    -1.7217 H       
  66 H66            8.4436     3.6857    -5.9785 H       
  67 H67            6.3620    -1.0012    -4.2773 H       
  68 H68            4.5947    -1.3784    -6.0573 H       
  69 H69            5.0582     0.2182    -6.8557 H       
  70 H70            7.4177    -0.6434    -7.2089 H       
  71 H71            6.9541    -2.2400    -6.4105 H       
  72 H72           10.8352     6.3806    -1.6999 H       
  73 H73           12.0666     8.8536    -0.7534 H       
  74 H74           13.0251     6.7776    -2.7755 H       
  75 H75           12.1304     8.2671    -3.1619 H       
  76 H76           13.9640     9.6216    -2.1861 H       
  77 H77           15.3315     6.9167    -1.8250 H       
  78 H78           16.0800     8.5053    -1.5342 H       
  79 H79           15.2677     7.5032     0.5835 H       
  80 H80           14.3730     8.9927     0.1971 H       
  81 H81           12.8309     7.1901     0.9191 H       
  82 H82           13.4342     6.1487    -0.3923 H       
  83 H83           15.1883    10.8191    -6.1596 H       
  84 H84           15.7221     9.7368    -7.4680 H       
  85 H85           14.4107     9.2326    -6.3751 H       
  86 H86           18.4303     9.4659    -4.9283 H       
  87 H87           18.0694     9.8731    -6.6230 H       
  88 H88           17.5356    10.9554    -5.3147 H       
  89 H89           15.6666     7.1419    -5.8327 H       
  90 H90           16.9779     7.6461    -6.9256 H       
  91 H91           17.3388     7.2389    -5.2308 H       
@<TRIPOS>BOND
   1    1    2 ar
   2    1    6 ar
   3    1   48 1
   4    2    3 ar
   5    2   49 1
   6    3    4 ar
   7    3   50 1
   8    4    5 ar
   9    4    7 1
  10    5    6 ar
  11    5    8 1
  12    6   51 1
  13    7   52 1
  14    7   53 1
  15    7   54 1
  16    8   10 1
  17    8    9 1
  18    9   13 1
  19    9   55 1
  20    9   56 1
  21   10   11 1
  22   10   57 1
  23   10   58 1
  24   11   12 1
  25   11   59 1
  26   11   60 1
  27   12   13 1
  28   12   14 1
  29   13   61 1
  30   13   62 1
  31   14   15 ar
  32   14   19 ar
  33   15   16 ar
  34   15   63 1
  35   16   17 ar
  36   16   31 1
  37   17   18 ar
  38   17   32 1
  39   18   19 ar
  40   18   64 1
  41   19   20 1
  42   20   21 am
  43   20   65 1
  44   21   22 1
  45   21   23 2
  46   22   27 1
  47   22   26 2
  48   24   25 1
  49   24   27 2
  50   24   28 1
  51   25   26 1
  52   26   66 1
  53   28   29 1
  54   28   30 1
  55   28   67 1
  56   29   30 1
  57   29   68 1
  58   29   69 1
  59   30   70 1
  60   30   71 1
  61   32   33 2
  62   32   34 am
  63   34   35 1
  64   34   72 1
  65   35   36 1
  66   35   40 1
  67   35   73 1
  68   36   37 1
  69   36   74 1
  70   36   75 1
  71   37   38 1
  72   37   41 1
  73   37   76 1
  74   38   39 1
  75   38   77 1
  76   38   78 1
  77   39   40 1
  78   39   79 1
  79   39   80 1
  80   40   81 1
  81   40   82 1
  82   41   42 2
  83   41   43 1
  84   43   44 1
  85   44   45 1
  86   44   46 1
  87   44   47 1
  88   45   83 1
  89   45   84 1
  90   45   85 1
  91   46   86 1
  92   46   87 1
  93   46   88 1
  94   47   89 1
  95   47   90 1
  96   47   91 1

#	End of record

