#	Name: ASD05313122
#	Creating user name:	WinNT
#	Creation time:	15. 06. 2019 20:58

#	Modifying user name:	WinNT
#	Modification time:	15. 06. 2019 20:58

#	Program:	/corina/corina34_cracker 3.40 0067  02.08.2006

@<TRIPOS>MOLECULE
ASD05313122
  36   39    0    0    0
SMALL
NO_CHARGES


@<TRIPOS>ATOM
   1 C1            -0.0732     0.8185     1.0192 C.2     
   2 C2             0.1131    -0.6181     0.5930 C.3     
   3 N3             0.9374     1.7357     1.0454 N.pl3   
   4 N4             1.4568    -0.7169    -0.0077 N.am    
   5 C5             2.5717    -0.0378     0.6694 C.3     
   6 C6             2.3232     1.4754     0.6607 C.3     
   7 N7            -0.9011     2.6448     1.7005 N.2     
   8 N8            -1.1551     1.4128     1.4202 N.2     
   9 C9             0.3774     2.8969     1.4885 C.2     
  10 O10            2.3994     4.3644     1.7529 O.3     
  11 C11            1.0654     4.1816     1.6940 C.2     
  12 C12            0.4650     5.3935     1.8571 C.2     
  13 C13            1.4962     6.3379     2.0202 C.2     
  14 C14            2.6629     5.6661     1.9499 C.2     
  15 C15            1.6573    -1.4109    -1.1456 C.2     
  16 O16            2.7491    -1.4001    -1.6798 O.2     
  17 C17            0.5497    -2.1850    -1.7438 C.ar    
  18 C18            0.3179    -2.1293    -3.1206 C.ar    
  19 C19           -0.7193    -2.8556    -3.6722 C.ar    
  20 C20           -1.5270    -3.6358    -2.8648 C.ar    
  21 C21           -1.3025    -3.6945    -1.5006 C.ar    
  22 C22           -0.2662    -2.9797    -0.9368 C.ar    
  23 Cl23           1.3303    -1.1495    -4.1348 Cl      
  24 H24            0.0437    -1.2754     1.4598 H       
  25 H25           -0.6443    -0.8892    -0.1425 H       
  26 H26            2.6406    -0.3893     1.6988 H       
  27 H27            3.5027    -0.2567     0.1464 H       
  28 H28            2.5035     1.8684    -0.3399 H       
  29 H29            2.9951     1.9591     1.3697 H       
  30 H30           -0.5967     5.5914     1.8602 H       
  31 H31            1.3754     7.4003     2.1726 H       
  32 H32            3.6468     6.1027     2.0378 H       
  33 H33           -0.9002    -2.8140    -4.7361 H       
  34 H34           -2.3369    -4.2015    -3.3010 H       
  35 H35           -1.9377    -4.3053    -0.8762 H       
  36 H36           -0.0895    -3.0310     0.1274 H       
@<TRIPOS>BOND
   1    1    2 1
   2    1    3 1
   3    1    8 2
   4    2    4 1
   5    2   24 1
   6    2   25 1
   7    3    6 1
   8    3    9 1
   9    4    5 1
  10    4   15 am
  11    5    6 1
  12    5   26 1
  13    5   27 1
  14    6   28 1
  15    6   29 1
  16    7    8 1
  17    7    9 2
  18    9   11 1
  19   10   11 1
  20   10   14 1
  21   11   12 2
  22   12   13 1
  23   12   30 1
  24   13   14 2
  25   13   31 1
  26   14   32 1
  27   15   16 2
  28   15   17 1
  29   17   18 ar
  30   17   22 ar
  31   18   19 ar
  32   18   23 1
  33   19   20 ar
  34   19   33 1
  35   20   21 ar
  36   20   34 1
  37   21   22 ar
  38   21   35 1
  39   22   36 1

#	End of record

