#	Name: ASD06640002
#	Creating user name:	WinNT
#	Creation time:	15. 06. 2019 21:07

#	Modifying user name:	WinNT
#	Modification time:	15. 06. 2019 21:07

#	Program:	/corina/corina34_cracker 3.40 0067  02.08.2006

@<TRIPOS>MOLECULE
ASD06640002
  34   35    0    0    0
SMALL
NO_CHARGES


@<TRIPOS>ATOM
   1 C1            -0.9293     0.7057     0.0777 C.3     
   2 O2            -0.9320    -0.6773     0.4373 O.3     
   3 C3             0.0260    -1.0903     1.3098 C.ar    
   4 C4             0.9489    -0.1779     1.8075 C.ar    
   5 C5             1.9254    -0.5855     2.6929 C.ar    
   6 C6             1.9926    -1.9136     3.0939 C.ar    
   7 C7             1.0629    -2.8398     2.5950 C.ar    
   8 C8             0.0747    -2.4145     1.7026 C.ar    
   9 C9             1.1254    -4.2507     3.0134 C.2     
  10 O10            1.9191    -4.5970     3.8661 O.2     
  11 O11            0.3025    -5.1576     2.4507 O.3     
  12 N12            2.9774    -2.3245     3.9860 N.pl3   
  13 C13            4.1173    -2.9819     3.5146 C.ar    
  14 C14            4.3024    -3.1622     2.1502 C.ar    
  15 C15            5.4303    -3.8120     1.6875 C.ar    
  16 C16            6.3745    -4.2833     2.5808 C.ar    
  17 C17            6.1939    -4.1062     3.9406 C.ar    
  18 C18            5.0713    -3.4518     4.4104 C.ar    
  19 Cl19           4.8453    -3.2293     6.1171 Cl      
  20 C20            5.6316    -4.0079     0.2069 C.3     
  21 F21            6.3311    -2.9156    -0.3172 F       
  22 F22            6.3637    -5.1796    -0.0132 F       
  23 F23            4.3868    -4.1105    -0.4234 F       
  24 H24            0.0220     0.9573    -0.3912 H       
  25 H25           -1.7421     0.9008    -0.6219 H       
  26 H26           -1.0657     1.3139     0.9719 H       
  27 H27            0.9015     0.8561     1.4992 H       
  28 H28            2.6393     0.1294     3.0745 H       
  29 H29           -0.6441    -3.1209     1.3143 H       
  30 H30            0.3805    -6.0713     2.7577 H       
  31 H31            2.8732    -2.1548     4.9354 H       
  32 H32            3.5652    -2.7952     1.4515 H       
  33 H33            7.2550    -4.7912     2.2159 H       
  34 H34            6.9331    -4.4762     4.6357 H       
@<TRIPOS>BOND
   1    1    2 1
   2    1   24 1
   3    1   25 1
   4    1   26 1
   5    2    3 1
   6    3    4 ar
   7    3    8 ar
   8    4    5 ar
   9    4   27 1
  10    5    6 ar
  11    5   28 1
  12    6    7 ar
  13    6   12 1
  14    7    8 ar
  15    7    9 1
  16    8   29 1
  17    9   10 2
  18    9   11 1
  19   11   30 1
  20   12   13 1
  21   12   31 1
  22   13   14 ar
  23   13   18 ar
  24   14   15 ar
  25   14   32 1
  26   15   16 ar
  27   15   20 1
  28   16   17 ar
  29   16   33 1
  30   17   18 ar
  31   17   34 1
  32   18   19 1
  33   20   21 1
  34   20   22 1
  35   20   23 1

#	End of record

