#	Name: ASD01470047
#	Creating user name:	WinNT
#	Creation time:	15. 06. 2019 19:21

#	Modifying user name:	WinNT
#	Modification time:	15. 06. 2019 19:21

#	Program:	/corina/corina34_cracker 3.40 0067  02.08.2006

@<TRIPOS>MOLECULE
ASD01470047
  93  100    0    0    0
SMALL
NO_CHARGES


@<TRIPOS>ATOM
   1 N1            -1.6773     1.3953     0.5992 N.am    
   2 C2            -0.3432     0.9464     0.2102 C.3     
   3 C3             0.1952    -0.0879     1.2087 C.3     
   4 C4            -0.2697    -1.4965     0.8727 C.3     
   5 C5            -1.6371    -1.4888     0.2095 C.3     
   6 N6            -2.6059    -0.7527     1.0227 N.am    
   7 C7            -2.6386     0.5914     1.0250 C.2     
   8 O8            -3.6496     1.1169     1.4491 O.2     
   9 C9            -3.5561    -1.4942     1.8555 C.3     
  10 C10           -1.9686     2.8288     0.5186 C.3     
  11 C11           -1.7076     3.4704     1.8570 C.ar    
  12 C12           -3.0030    -1.6282     3.2509 C.ar    
  13 C13           -3.1494    -0.6012     4.1375 C.ar    
  14 C14           -2.6358    -0.7269     5.4332 C.ar    
  15 C15           -1.9735    -1.9117     5.8081 C.ar    
  16 C16           -1.8398    -2.9432     4.8817 C.ar    
  17 C17           -2.3538    -2.7988     3.6245 C.ar    
  18 C18           -0.4287     3.8723     2.1931 C.ar    
  19 C19           -0.1893     4.4609     3.4210 C.ar    
  20 C20           -1.2290     4.6478     4.3122 C.ar    
  21 C21           -2.5086     4.2466     3.9757 C.ar    
  22 C22           -2.7487     3.6622     2.7464 C.ar    
  23 C23           -2.6121     0.1441     6.6037 C.2     
  24 N24           -1.9921    -0.4890     7.5582 N.2     
  25 N25           -1.5851    -1.7507     7.1124 N.pl3   
  26 C26           -0.4097     0.3158    -1.1822 C.3     
  27 O27            1.6236    -0.0533     1.1881 O.3     
  28 C28            0.4551     1.1035    -2.1323 C.ar    
  29 C29            1.7576     0.7072    -2.3716 C.ar    
  30 C30            2.5509     1.4298    -3.2430 C.ar    
  31 C31            2.0415     2.5484    -3.8755 C.ar    
  32 C32            0.7387     2.9442    -3.6370 C.ar    
  33 C33           -0.0560     2.2191    -2.7688 C.ar    
  34 C34           -2.1195    -2.9300     0.0327 C.3     
  35 O35           -0.3384    -2.2649     2.0756 O.3     
  36 C36           -1.1990    -3.6551    -0.9149 C.ar    
  37 C37           -0.0652    -4.2820    -0.4330 C.ar    
  38 C38            0.7792    -4.9471    -1.3022 C.ar    
  39 C39            0.4894    -4.9858    -2.6533 C.ar    
  40 C40           -0.6449    -4.3596    -3.1351 C.ar    
  41 C41           -1.4916    -3.6982    -2.2652 C.ar    
  42 C42           -3.6422     4.4500     4.9476 C.3     
  43 N43           -4.3301     5.7062     4.6395 N.pl3   
  44 C44           -5.4085     6.1063     5.4002 C.2     
  45 N45           -6.0945     7.2062     5.2132 N.2     
  46 C46           -7.0864     7.2883     6.1386 C.ar    
  47 C47           -6.9909     6.1454     6.9493 C.ar    
  48 N48           -5.9238     5.4119     6.4570 N.pl3   
  49 C49           -8.0873     8.2295     6.3920 C.ar    
  50 C50           -8.9681     8.0282     7.4310 C.ar    
  51 C51           -8.8689     6.8979     8.2288 C.ar    
  52 C52           -7.8864     5.9589     7.9914 C.ar    
  53 H53            0.3300     1.8032     0.1826 H       
  54 H54           -0.1528     0.1707     2.2087 H       
  55 H55            0.4510    -1.9580     0.1977 H       
  56 H56           -1.5584    -1.0169    -0.7699 H       
  57 H57           -4.5043    -0.9578     1.8905 H       
  58 H58           -3.7149    -2.4855     1.4309 H       
  59 H59           -1.3289     3.2877    -0.2352 H       
  60 H60           -3.0137     2.9723     0.2445 H       
  61 H61           -3.6585     0.3039     3.8407 H       
  62 H62           -1.3335    -3.8563     5.1578 H       
  63 H63           -2.2480    -3.6014     2.9096 H       
  64 H64            0.3838     3.7262     1.4967 H       
  65 H65            0.8103     4.7743     3.6839 H       
  66 H66           -1.0419     5.1070     5.2717 H       
  67 H67           -3.7482     3.3488     2.4835 H       
  68 H68           -3.0335     1.1365     6.6672 H       
  69 H69           -1.1052    -2.4068     7.6417 H       
  70 H70           -0.0518    -0.7126    -1.1328 H       
  71 H71           -1.4405     0.3251    -1.5365 H       
  72 H72            2.0410    -0.6804     1.7943 H       
  73 H73            2.1556    -0.1668    -1.8774 H       
  74 H74            3.5688     1.1206    -3.4294 H       
  75 H75            2.6615     3.1134    -4.5559 H       
  76 H76            0.3408     3.8184    -4.1309 H       
  77 H77           -1.0738     2.5283    -2.5824 H       
  78 H78           -2.1176    -3.4349     0.9987 H       
  79 H79           -3.1308    -2.9274    -0.3738 H       
  80 H80            0.5054    -2.3426     2.5415 H       
  81 H81            0.1612    -4.2518     0.6226 H       
  82 H82            1.6654    -5.4363    -0.9258 H       
  83 H83            1.1495    -5.5048    -3.3325 H       
  84 H84           -0.8711    -4.3895    -4.1907 H       
  85 H85           -2.3778    -3.2091    -2.6416 H       
  86 H86           -4.3450     3.6210     4.8647 H       
  87 H87           -3.2473     4.4915     5.9627 H       
  88 H88           -4.0272     6.2565     3.9004 H       
  89 H89           -5.5995     4.5654     6.8022 H       
  90 H90           -8.1698     9.1121     5.7751 H       
  91 H91           -9.7417     8.7560     7.6265 H       
  92 H92           -9.5654     6.7519     9.0412 H       
  93 H93           -7.8143     5.0811     8.6165 H       
@<TRIPOS>BOND
   1    1    2 1
   2    1   10 1
   3    1    7 am
   4    2    3 1
   5    2   26 1
   6    2   53 1
   7    3    4 1
   8    3   27 1
   9    3   54 1
  10    4    5 1
  11    4   35 1
  12    4   55 1
  13    5    6 1
  14    5   34 1
  15    5   56 1
  16    6    7 am
  17    6    9 1
  18    7    8 2
  19    9   12 1
  20    9   57 1
  21    9   58 1
  22   10   11 1
  23   10   59 1
  24   10   60 1
  25   11   18 ar
  26   11   22 ar
  27   12   13 ar
  28   12   17 ar
  29   13   14 ar
  30   13   61 1
  31   14   15 ar
  32   14   23 1
  33   15   16 ar
  34   15   25 1
  35   16   17 ar
  36   16   62 1
  37   17   63 1
  38   18   19 ar
  39   18   64 1
  40   19   20 ar
  41   19   65 1
  42   20   21 ar
  43   20   66 1
  44   21   22 ar
  45   21   42 1
  46   22   67 1
  47   23   24 2
  48   23   68 1
  49   24   25 1
  50   25   69 1
  51   26   28 1
  52   26   70 1
  53   26   71 1
  54   27   72 1
  55   28   29 ar
  56   28   33 ar
  57   29   30 ar
  58   29   73 1
  59   30   31 ar
  60   30   74 1
  61   31   32 ar
  62   31   75 1
  63   32   33 ar
  64   32   76 1
  65   33   77 1
  66   34   36 1
  67   34   78 1
  68   34   79 1
  69   35   80 1
  70   36   37 ar
  71   36   41 ar
  72   37   38 ar
  73   37   81 1
  74   38   39 ar
  75   38   82 1
  76   39   40 ar
  77   39   83 1
  78   40   41 ar
  79   40   84 1
  80   41   85 1
  81   42   43 1
  82   42   86 1
  83   42   87 1
  84   43   44 1
  85   43   88 1
  86   44   45 2
  87   44   48 1
  88   45   46 1
  89   46   47 ar
  90   46   49 ar
  91   47   48 1
  92   47   52 ar
  93   48   89 1
  94   49   50 ar
  95   49   90 1
  96   50   51 ar
  97   50   91 1
  98   51   52 ar
  99   51   92 1
 100   52   93 1

#	End of record

