#	Name: ASD01901486
#	Creating user name:	WinNT
#	Creation time:	15. 06. 2019 19:53

#	Modifying user name:	WinNT
#	Modification time:	15. 06. 2019 19:53

#	Program:	/corina/corina34_cracker 3.40 0067  02.08.2006

@<TRIPOS>MOLECULE
ASD01901486
  36   39    0    0    0
SMALL
NO_CHARGES


@<TRIPOS>ATOM
   1 C1            -0.0168     1.3896     0.0097 C.ar    
   2 C2             1.1696     2.0935     0.0021 C.ar    
   3 C3             2.3788     1.4171    -0.0130 C.ar    
   4 C4             2.4023     0.0317    -0.0212 C.ar    
   5 C5             1.2207    -0.6803    -0.0137 C.ar    
   6 C6             0.0021    -0.0041     0.0020 C.ar    
   7 C7            -1.2710    -0.7653     0.0106 C.2     
   8 N8            -3.6375    -0.7400     0.0282 N.2     
   9 C9            -2.5060    -0.0814     0.0206 C.2     
  10 N10           -1.2543    -2.0837     0.0033 N.2     
  11 N11           -2.4704    -2.7775     0.0112 N.pl3   
  12 C12           -3.6538    -2.0789     0.0262 C.2     
  13 C13           -2.7852    -4.1036     0.0071 C.2     
  14 C14           -4.1352    -4.1932     0.0195 C.2     
  15 N15           -4.6445    -2.9595     0.0324 N.2     
  16 C16           -4.9312    -5.4728     0.0203 C.3     
  17 O17           -4.0389    -6.5888     0.0060 O.3     
  18 C18           -4.5985    -7.8249     0.0048 C.ar    
  19 N19           -5.9155    -7.9477     0.0167 N.ar    
  20 C20           -3.7831    -8.9489    -0.0146 C.ar    
  21 C21           -4.3665   -10.2041    -0.0155 C.ar    
  22 C22           -5.7516   -10.2904     0.0030 C.ar    
  23 C23           -6.5005    -9.1302     0.0161 C.ar    
  24 F24            3.5383     2.1104    -0.0204 F       
  25 H25           -0.9588     1.9176     0.0260 H       
  26 H26            1.1559     3.1734     0.0077 H       
  27 H27            3.3471    -0.4915    -0.0337 H       
  28 H28            1.2399    -1.7602    -0.0201 H       
  29 H29           -2.5175     0.9985     0.0224 H       
  30 H30           -2.0878    -4.9282    -0.0045 H       
  31 H31           -5.5509    -5.5145     0.9160 H       
  32 H32           -5.5679    -5.5052    -0.8638 H       
  33 H33           -2.7082    -8.8450    -0.0290 H       
  34 H34           -3.7578   -11.0961    -0.0307 H       
  35 H35           -6.2385   -11.2544     0.0025 H       
  36 H36           -7.5787    -9.1917     0.0260 H       
@<TRIPOS>BOND
   1    1    6 ar
   2    1    2 ar
   3    1   25 1
   4    2    3 ar
   5    2   26 1
   6    3    4 ar
   7    3   24 1
   8    4    5 ar
   9    4   27 1
  10    5    6 ar
  11    5   28 1
  12    6    7 1
  13    7   10 2
  14    7    9 1
  15    8    9 2
  16    8   12 1
  17    9   29 1
  18   10   11 1
  19   11   13 1
  20   11   12 1
  21   12   15 2
  22   13   14 2
  23   13   30 1
  24   14   15 1
  25   14   16 1
  26   16   17 1
  27   16   31 1
  28   16   32 1
  29   17   18 1
  30   18   19 ar
  31   18   20 ar
  32   19   23 ar
  33   20   21 ar
  34   20   33 1
  35   21   22 ar
  36   21   34 1
  37   22   23 ar
  38   22   35 1
  39   23   36 1

#	End of record

