#	Name: ASD01885408
#	Creating user name:	WinNT
#	Creation time:	15. 06. 2019 19:49

#	Modifying user name:	WinNT
#	Modification time:	15. 06. 2019 19:49

#	Program:	/corina/corina34_cracker 3.40 0067  02.08.2006

@<TRIPOS>MOLECULE
ASD01885408
  28   30    0    0    0
SMALL
NO_CHARGES


@<TRIPOS>ATOM
   1 C1            -0.0168     1.3900     0.0097 C.ar    
   2 C2             0.0021    -0.0041     0.0020 C.ar    
   3 N3            -1.1145    -0.7761     0.0185 N.2     
   4 C4            -2.1893    -0.5676    -0.6487 C.2     
   5 C5            -2.3479     0.6305    -1.5469 C.3     
   6 C6            -2.2774     1.8706    -0.6919 C.2     
   7 N7            -1.1817     2.1454     0.0184 N.am    
   8 C8             1.1912     2.0899     0.0019 C.ar    
   9 C9             2.3947     1.4193    -0.0179 C.ar    
  10 C10            2.4179     0.0338    -0.0308 C.ar    
  11 C11            1.2379    -0.6740    -0.0204 C.ar    
  12 C12           -3.3011    -1.5284    -0.5338 C.ar    
  13 C13           -3.2009    -2.6607     0.2901 C.ar    
  14 C14           -4.2871    -3.5159     0.3459 C.ar    
  15 N15           -5.3700    -3.2544    -0.3617 N.ar    
  16 N16           -5.4696    -2.2224    -1.1167 N.ar    
  17 C17           -4.4975    -1.3409    -1.2384 C.ar    
  18 O18           -3.2258     2.6255    -0.6494 O.2     
  19 Br19           4.0709    -0.8840    -0.0614 Br      
  20 H20           -1.5456     0.6461    -2.2846 H       
  21 H21           -3.3126     0.5864    -2.0523 H       
  22 H22           -1.2004     2.9334     0.5837 H       
  23 H23            1.1823     3.1698     0.0112 H       
  24 H24            3.3212     1.9742    -0.0237 H       
  25 H25            1.2613    -1.7537    -0.0306 H       
  26 H26           -2.3056    -2.8578     0.8610 H       
  27 H27           -4.2487    -4.3977     0.9682 H       
  28 H28           -4.6189    -0.4838    -1.8841 H       
@<TRIPOS>BOND
   1    1    2 ar
   2    1    8 ar
   3    1    7 1
   4    2    3 1
   5    2   11 ar
   6    3    4 2
   7    4    5 1
   8    4   12 1
   9    5    6 1
  10    5   20 1
  11    5   21 1
  12    6    7 am
  13    6   18 2
  14    7   22 1
  15    8    9 ar
  16    8   23 1
  17    9   10 ar
  18    9   24 1
  19   10   11 ar
  20   10   19 1
  21   11   25 1
  22   12   13 ar
  23   12   17 ar
  24   13   14 ar
  25   13   26 1
  26   14   15 ar
  27   14   27 1
  28   15   16 ar
  29   16   17 ar
  30   17   28 1

#	End of record

