#	Name: ASD00100096
#	Creating user name:	WinNT
#	Creation time:	15. 06. 2019 18:30

#	Modifying user name:	WinNT
#	Modification time:	15. 06. 2019 18:30

#	Program:	/corina/corina34_cracker 3.40 0067  02.08.2006

@<TRIPOS>MOLECULE
ASD00100096
  38   40    0    0    0
SMALL
NO_CHARGES


@<TRIPOS>ATOM
   1 N1            -0.1490     1.5801     0.3566 N.pl3   
   2 N2             0.7934    -1.8223    -0.1067 N.pl3   
   3 N3             1.0992    -0.4633     0.0408 N.2     
   4 C4            -0.0259     0.1974     0.1821 C.2     
   5 C5            -1.0854    -0.7237     0.1287 C.2     
   6 C6            -0.5567    -1.9558    -0.0490 C.2     
   7 C7             1.7171    -2.8600    -0.2878 C.ar    
   8 C8             3.0767    -2.5812    -0.3338 C.ar    
   9 C9             3.9848    -3.6064    -0.5120 C.ar    
  10 C10            3.5414    -4.9095    -0.6446 C.ar    
  11 C11            2.1882    -5.1904    -0.5992 C.ar    
  12 C12            1.2754    -4.1702    -0.4159 C.ar    
  13 C13           -2.5515    -0.3969     0.2493 C.3     
  14 C14           -3.0923    -0.0075    -1.1024 C.ar    
  15 C15           -3.5218    -0.9866    -1.9867 C.ar    
  16 C16           -4.0189    -0.6250    -3.2301 C.ar    
  17 C17           -4.0852     0.7086    -3.5851 C.ar    
  18 C18           -3.6562     1.6822    -2.7024 C.ar    
  19 C19           -3.1659     1.3246    -1.4598 C.ar    
  20 O20           -3.4551    -2.2977    -1.6354 O.3     
  21 C21           -3.9148    -3.2509    -2.5957 C.3     
  22 H22            0.6450     2.1310     0.4398 H       
  23 H23           -1.0283     1.9883     0.3903 H       
  24 H24           -1.1093    -2.8800    -0.1310 H       
  25 H25            3.4235    -1.5636    -0.2307 H       
  26 H26            5.0423    -3.3900    -0.5483 H       
  27 H27            4.2535    -5.7094    -0.7842 H       
  28 H28            1.8450    -6.2091    -0.7033 H       
  29 H29            0.2189    -4.3908    -0.3760 H       
  30 H30           -3.0894    -1.2703     0.6180 H       
  31 H31           -2.6831     0.4314     0.9456 H       
  32 H32           -4.3536    -1.3853    -3.9204 H       
  33 H33           -4.4722     0.9907    -4.5531 H       
  34 H34           -3.7082     2.7241    -2.9820 H       
  35 H35           -2.8359     2.0874    -0.7701 H       
  36 H36           -4.9641    -3.0614    -2.8222 H       
  37 H37           -3.3244    -3.1616    -3.5076 H       
  38 H38           -3.8067    -4.2567    -2.1898 H       
@<TRIPOS>BOND
   1    1    4 1
   2    1   22 1
   3    1   23 1
   4    2    3 1
   5    2    6 1
   6    2    7 1
   7    3    4 2
   8    4    5 1
   9    5    6 2
  10    5   13 1
  11    6   24 1
  12    7    8 ar
  13    7   12 ar
  14    8    9 ar
  15    8   25 1
  16    9   10 ar
  17    9   26 1
  18   10   11 ar
  19   10   27 1
  20   11   12 ar
  21   11   28 1
  22   12   29 1
  23   13   14 1
  24   13   30 1
  25   13   31 1
  26   14   15 ar
  27   14   19 ar
  28   15   16 ar
  29   15   20 1
  30   16   17 ar
  31   16   32 1
  32   17   18 ar
  33   17   33 1
  34   18   19 ar
  35   18   34 1
  36   19   35 1
  37   20   21 1
  38   21   36 1
  39   21   37 1
  40   21   38 1

#	End of record

