#	Name: ASD01881070
#	Creating user name:	WinNT
#	Creation time:	15. 06. 2019 19:41

#	Modifying user name:	WinNT
#	Modification time:	15. 06. 2019 19:41

#	Program:	/corina/corina34_cracker 3.40 0067  02.08.2006

@<TRIPOS>MOLECULE
ASD01881070
  35   37    0    0    0
SMALL
NO_CHARGES


@<TRIPOS>ATOM
   1 C1            -0.0169     1.3947     0.0097 C.ar    
   2 C2             0.0021    -0.0041     0.0020 C.ar    
   3 C3             1.2088    -0.6926    -0.0132 C.ar    
   4 C4             2.4033     0.0240    -0.0207 C.ar    
   5 C5             2.3732     1.4390    -0.0128 C.ar    
   6 C6             1.1478     2.1092     0.0024 C.ar    
   7 C7             3.7066    -0.6441    -0.0361 C.2     
   8 C8             4.8268     0.0959    -0.0424 C.2     
   9 N9             4.8015     1.4614    -0.0349 N.am    
  10 C10            3.6495     2.1603    -0.0207 C.2     
  11 C11            6.0713     2.1919    -0.0427 C.3     
  12 C12            6.5002     2.4539    -1.4878 C.3     
  13 C13            7.8263     3.2168    -1.4959 C.3     
  14 O14            3.6684     3.3782    -0.0151 O.2     
  15 Cl15           1.1046     3.8447     0.0116 Cl      
  16 C16           -1.2756    -0.7578     0.0106 C.ar    
  17 C17           -2.5030    -0.0901     0.0263 C.ar    
  18 N18           -3.6178    -0.8005     0.0336 N.ar    
  19 C19           -3.5819    -2.1184     0.0262 C.ar    
  20 N20           -2.4459    -2.7872     0.0118 N.ar    
  21 C21           -1.2850    -2.1551    -0.0026 C.ar    
  22 H22           -0.9629     1.9157     0.0170 H       
  23 H23            1.2205    -1.7725    -0.0187 H       
  24 H24            3.7660    -1.7225    -0.0421 H       
  25 H25            5.7826    -0.4068    -0.0535 H       
  26 H26            5.9472     3.1417     0.4774 H       
  27 H27            6.8347     1.5989     0.4610 H       
  28 H28            6.6243     1.5040    -2.0078 H       
  29 H29            5.7368     3.0468    -1.9915 H       
  30 H30            8.5897     2.6238    -0.9922 H       
  31 H31            8.1319     3.4034    -2.5254 H       
  32 H32            7.7023     4.1667    -0.9758 H       
  33 H33           -2.5403     0.9892     0.0328 H       
  34 H34           -4.5121    -2.6671     0.0325 H       
  35 H35           -0.3585    -2.7098    -0.0144 H       
@<TRIPOS>BOND
   1    1    2 ar
   2    1    6 ar
   3    1   22 1
   4    2    3 ar
   5    2   16 1
   6    3    4 ar
   7    3   23 1
   8    4    5 ar
   9    4    7 1
  10    5    6 ar
  11    5   10 1
  12    6   15 1
  13    7    8 2
  14    7   24 1
  15    8    9 1
  16    8   25 1
  17    9   10 am
  18    9   11 1
  19   10   14 2
  20   11   12 1
  21   11   26 1
  22   11   27 1
  23   12   13 1
  24   12   28 1
  25   12   29 1
  26   13   30 1
  27   13   31 1
  28   13   32 1
  29   16   17 ar
  30   16   21 ar
  31   17   18 ar
  32   17   33 1
  33   18   19 ar
  34   19   20 ar
  35   19   34 1
  36   20   21 ar
  37   21   35 1

#	End of record

