#	Name: ASD03090013
#	Creating user name:	WinNT
#	Creation time:	15. 06. 2019 20:28

#	Modifying user name:	WinNT
#	Modification time:	15. 06. 2019 20:28

#	Program:	/corina/corina34_cracker 3.40 0067  02.08.2006

@<TRIPOS>MOLECULE
ASD03090013
  47   51    0    0    0
SMALL
NO_CHARGES


@<TRIPOS>ATOM
   1 C1            -0.0170     1.4008     0.0097 C.ar    
   2 C2             0.0021    -0.0041     0.0020 C.ar    
   3 C3             1.1940    -0.6614    -0.0128 C.ar    
   4 C4             2.3990     0.0381    -0.0200 C.ar    
   5 C5             2.4193     1.3992    -0.0125 C.ar    
   6 C6             1.2089     2.1124     0.0019 C.ar    
   7 C7             1.1898     3.5178     0.0095 C.ar    
   8 C8            -0.0019     4.1748     0.0230 C.ar    
   9 C9            -1.2073     3.4751     0.0294 C.ar    
  10 C10           -1.2278     2.1144     0.0193 C.ar    
  11 C11            3.7333     2.1372    -0.0195 C.3     
  12 C12            4.1419     2.4943     1.3986 C.3     
  13 C13            4.1066     1.1531     2.1908 C.3     
  14 C14            5.1905     0.2903     1.6736 C.ar    
  15 C15            5.4882     0.3750     0.3088 C.ar    
  16 N16            4.8084     1.2617    -0.5349 N.pl3   
  17 C17            5.8959    -0.5758     2.4807 C.ar    
  18 C18            6.8928    -1.3715     1.9472 C.ar    
  19 C19            7.1850    -1.3011     0.5972 C.ar    
  20 C20            6.4878    -0.4340    -0.2184 C.ar    
  21 C21            3.1185     3.2572     2.2504 C.3     
  22 C22            3.4816     2.7889     3.6609 C.2     
  23 C23            4.0616     1.5959     3.6078 C.2     
  24 S24            7.7911    -2.4744     2.9870 S.o2    
  25 N25            6.9794    -3.9179     2.9878 N.am    
  26 O26            9.0337    -2.7132     2.3402 O.2     
  27 O27            7.6885    -1.9557     4.3059 O.2     
  28 H28           -0.9241    -0.5595     0.0082 H       
  29 H29            1.2059    -1.7413    -0.0188 H       
  30 H30            3.3309    -0.5077    -0.0314 H       
  31 H31            2.1159     4.0733     0.0049 H       
  32 H32           -0.0137     5.2548     0.0291 H       
  33 H33           -2.1391     4.0210     0.0402 H       
  34 H34           -2.1695     1.5856     0.0242 H       
  35 H35            3.6550     3.0386    -0.6272 H       
  36 H36            5.1289     2.9562     1.4242 H       
  37 H37            3.1552     0.6676     1.9733 H       
  38 H38            5.0466     1.3024    -1.4744 H       
  39 H39            5.6692    -0.6329     3.5351 H       
  40 H40            7.9610    -1.9261     0.1806 H       
  41 H41            6.7197    -0.3837    -1.2720 H       
  42 H42            3.2521     4.3343     2.1499 H       
  43 H43            2.1005     2.9657     1.9920 H       
  44 H44            3.2937     3.3466     4.5664 H       
  45 H45            4.4380     1.0400     4.4538 H       
  46 H46            7.4665    -4.7482     3.1070 H       
  47 H47            6.0168    -3.9331     2.8690 H       
@<TRIPOS>BOND
   1    1    2 ar
   2    1    6 ar
   3    1   10 ar
   4    2    3 ar
   5    2   28 1
   6    3    4 ar
   7    3   29 1
   8    4    5 ar
   9    4   30 1
  10    5    6 ar
  11    5   11 1
  12    6    7 ar
  13    7    8 ar
  14    7   31 1
  15    8    9 ar
  16    8   32 1
  17    9   10 ar
  18    9   33 1
  19   10   34 1
  20   11   12 1
  21   11   16 1
  22   11   35 1
  23   12   13 1
  24   12   21 1
  25   12   36 1
  26   13   14 1
  27   13   23 1
  28   13   37 1
  29   14   15 ar
  30   14   17 ar
  31   15   16 1
  32   15   20 ar
  33   16   38 1
  34   17   18 ar
  35   17   39 1
  36   18   19 ar
  37   18   24 1
  38   19   20 ar
  39   19   40 1
  40   20   41 1
  41   21   22 1
  42   21   42 1
  43   21   43 1
  44   22   23 2
  45   22   44 1
  46   23   45 1
  47   24   25 am
  48   24   26 2
  49   24   27 2
  50   25   46 1
  51   25   47 1

#	End of record

