#	Name: ASD01140047
#	Creating user name:	WinNT
#	Creation time:	15. 06. 2019 18:59

#	Modifying user name:	WinNT
#	Modification time:	15. 06. 2019 18:59

#	Program:	/corina/corina34_cracker 3.40 0067  02.08.2006

@<TRIPOS>MOLECULE
ASD01140047
  44   46    0    0    0
SMALL
NO_CHARGES


@<TRIPOS>ATOM
   1 C1            -0.0168     1.3885     0.0097 C.ar    
   2 C2             0.0021    -0.0041     0.0020 C.ar    
   3 C3            -1.1903    -0.7095     0.0089 C.ar    
   4 C4            -2.3950    -0.0317     0.0229 C.ar    
   5 C5            -2.4138     1.3507     0.0301 C.ar    
   6 C6            -1.2280     2.0611     0.0197 C.ar    
   7 O7             1.2705     1.8423    -0.0002 O.3     
   8 C8             2.0774     0.7183     0.3983 C.3     
   9 O9             1.3012    -0.4227    -0.0127 O.3     
  10 C10           -3.7299     2.0847     0.0443 C.3     
  11 C11           -4.1637     2.3258     1.4915 C.3     
  12 C12           -5.4999     3.0710     1.5060 C.3     
  13 C13           -5.9338     3.3121     2.9533 C.3     
  14 C14           -7.2499     4.0462     2.9675 C.2     
  15 N15           -7.8290     4.3685     4.1410 N.am    
  16 O16           -7.7878     4.3468     1.9229 O.2     
  17 C17           -9.1119     5.0840     4.1711 C.3     
  18 C18          -10.0962     4.2952     5.0404 C.3     
  19 C19           -9.4762     4.0583     6.4194 C.3     
  20 C20           -8.1955     3.2338     6.2700 C.3     
  21 C21           -7.1925     4.0056     5.4145 C.3     
  22 H22           -1.1786    -1.7894     0.0031 H       
  23 H23           -3.3236    -0.5832     0.0279 H       
  24 H24           -1.2456     3.1410     0.0257 H       
  25 H25            3.0376     0.7341    -0.1175 H       
  26 H26            2.2218     0.7143     1.4786 H       
  27 H27           -3.6178     3.0416    -0.4656 H       
  28 H28           -4.4848     1.4870    -0.4665 H       
  29 H29           -4.2758     1.3690     2.0015 H       
  30 H30           -3.4088     2.9235     2.0024 H       
  31 H31           -5.3878     4.0279     0.9961 H       
  32 H32           -6.2548     2.4733     0.9952 H       
  33 H33           -6.0459     2.3553     3.4632 H       
  34 H34           -5.1789     3.9099     3.4641 H       
  35 H35           -8.9662     6.0779     4.5941 H       
  36 H36           -9.5063     5.1698     3.1585 H       
  37 H37          -11.0205     4.8624     5.1497 H       
  38 H38          -10.3108     3.3363     4.5685 H       
  39 H39           -9.2390     5.0171     6.8804 H       
  40 H40          -10.1843     3.5185     7.0481 H       
  41 H41           -7.7671     3.0456     7.2544 H       
  42 H42           -8.4281     2.2850     5.7865 H       
  43 H43           -6.3192     3.3820     5.2233 H       
  44 H44           -6.8889     4.9130     5.9367 H       
@<TRIPOS>BOND
   1    1    2 ar
   2    1    7 1
   3    1    6 ar
   4    2    3 ar
   5    2    9 1
   6    3    4 ar
   7    3   22 1
   8    4    5 ar
   9    4   23 1
  10    5    6 ar
  11    5   10 1
  12    6   24 1
  13    7    8 1
  14    8    9 1
  15    8   25 1
  16    8   26 1
  17   10   11 1
  18   10   27 1
  19   10   28 1
  20   11   12 1
  21   11   29 1
  22   11   30 1
  23   12   13 1
  24   12   31 1
  25   12   32 1
  26   13   14 1
  27   13   33 1
  28   13   34 1
  29   14   15 am
  30   14   16 2
  31   15   17 1
  32   15   21 1
  33   17   18 1
  34   17   35 1
  35   17   36 1
  36   18   19 1
  37   18   37 1
  38   18   38 1
  39   19   20 1
  40   19   39 1
  41   19   40 1
  42   20   21 1
  43   20   41 1
  44   20   42 1
  45   21   43 1
  46   21   44 1

#	End of record

