#	Name: ASD01410714
#	Creating user name:	WinNT
#	Creation time:	15. 06. 2019 19:18

#	Modifying user name:	WinNT
#	Modification time:	15. 06. 2019 19:18

#	Program:	/corina/corina34_cracker 3.40 0067  02.08.2006

@<TRIPOS>MOLECULE
ASD01410714
  80   84    0    0    0
SMALL
NO_CHARGES


@<TRIPOS>ATOM
   1 C1             0.2801     1.1950    -0.2448 C.ar    
   2 C2            -2.1150     1.3921    -0.2539 C.ar    
   3 C3            -2.2333     0.0245    -0.0490 C.ar    
   4 C4            -1.0794    -0.7682     0.0473 C.ar    
   5 C5             0.1795    -0.1699    -0.0463 C.ar    
   6 O6             1.5050     1.7772    -0.3417 O.3     
   7 C7             1.8843     2.6305     0.6425 C.ar    
   8 N8            -3.4945    -0.5615     0.0492 N.am    
   9 C9            -4.0269    -0.8156     1.2610 C.2     
  10 C10           -5.3368    -1.5528     1.3689 C.3     
  11 O11           -3.4518    -0.4510     2.2646 O.2     
  12 C12           -5.6140    -1.8882     2.8357 C.3     
  13 C13           -7.7938    -1.4207     0.9348 C.3     
  14 C14           -8.0710    -1.7561     2.4017 C.3     
  15 C15           -6.9440    -2.6366     2.9453 C.3     
  16 C16           -9.4009    -2.5045     2.5112 C.3     
  17 N17            1.1152     2.7855     1.7077 N.ar    
  18 C18            3.0792     3.3288     0.5247 C.ar    
  19 C19            3.4549     4.1960     1.5361 C.ar    
  20 C20            2.6178     4.3343     2.6344 C.ar    
  21 C21            1.4466     3.6043     2.6875 C.ar    
  22 C22           -6.4638    -0.6723     0.8253 C.3     
  23 C23           -0.8667     1.9728    -0.3512 C.ar    
  24 C24            2.9858     5.2665     3.7599 C.3     
  25 C25           -4.2410    -0.9010    -1.1647 C.3     
  26 C26           -4.5531     0.3772    -1.9457 C.3     
  27 C27           -3.4009    -1.8380    -2.0348 C.3     
  28 C28           -4.1806    -2.1925    -3.3026 C.3     
  29 C29           -4.4927    -0.9144    -4.0836 C.3     
  30 C30           -5.3328     0.0226    -3.2135 C.3     
  31 O31           -5.2209    -1.2456    -5.2677 O.3     
  32 C32           -4.9969    -0.3490    -6.3576 C.3     
  33 N33            2.4407     6.5989     3.4884 N.pl3   
  34 N34            2.6455     7.2953     2.4255 N.2     
  35 N35            2.0222     8.4179     2.5036 N.2     
  36 C36            1.3725     8.4720     3.6717 C.2     
  37 C37            1.6307     7.3065     4.3095 C.2     
  38 C38           -1.1947    -2.2213     0.2653 C.2     
  39 O39           -2.2867    -2.7246     0.4404 O.2     
  40 O40           -0.0891    -2.9917     0.2704 O.3     
  41 C41            3.9551     3.1444    -0.6876 C.3     
  42 F42            5.0918     3.9514    -0.5688 F       
  43 F43            4.3430     1.8037    -0.7831 F       
  44 F44            3.2438     3.5070    -1.8364 F       
  45 H45           -3.0015     2.0045    -0.3284 H       
  46 H46            1.0723    -0.7721     0.0357 H       
  47 H47           -5.2840    -2.4743     0.7892 H       
  48 H48           -4.8111    -2.5155     3.2230 H       
  49 H49           -5.6669    -0.9666     3.4154 H       
  50 H50           -7.7409    -2.3423     0.3551 H       
  51 H51           -8.5967    -0.7934     0.5476 H       
  52 H52           -8.1238    -0.8346     2.9814 H       
  53 H53           -6.8911    -3.5582     2.3656 H       
  54 H54           -7.1414    -2.8755     3.9903 H       
  55 H55           -9.3480    -3.4261     1.9315 H       
  56 H56           -9.5984    -2.7435     3.5562 H       
  57 H57          -10.2038    -1.8772     2.1239 H       
  58 H58            4.3785     4.7520     1.4721 H       
  59 H59            0.7916     3.7086     3.5398 H       
  60 H60           -6.5167     0.2493     1.4050 H       
  61 H61           -6.2664    -0.4333    -0.2197 H       
  62 H62           -0.7807     3.0375    -0.5106 H       
  63 H63            2.5724     4.8883     4.6948 H       
  64 H64            4.0711     5.3275     3.8409 H       
  65 H65           -5.1727    -1.3965    -0.8916 H       
  66 H66           -5.1516     1.0447    -1.3258 H       
  67 H67           -3.6215     0.8727    -2.2187 H       
  68 H68           -2.4693    -1.3424    -2.3079 H       
  69 H69           -3.1786    -2.7485    -1.4784 H       
  70 H70           -3.5821    -2.8601    -3.9225 H       
  71 H71           -5.1122    -2.6881    -3.0295 H       
  72 H72           -3.5611    -0.4189    -4.3566 H       
  73 H73           -6.2644    -0.4730    -2.9404 H       
  74 H74           -5.5552     0.9331    -3.7699 H       
  75 H75           -3.9388    -0.3524    -6.6193 H       
  76 H76           -5.5849    -0.6688    -7.2179 H       
  77 H77           -5.2961     0.6581    -6.0671 H       
  78 H78            0.7592     9.2843     4.0330 H       
  79 H79            1.2680     7.0045     5.2809 H       
  80 H80           -0.2149    -3.9392     0.4173 H       
@<TRIPOS>BOND
   1    1   23 ar
   2    1    6 1
   3    1    5 ar
   4    2    3 ar
   5    2   23 ar
   6    2   45 1
   7    3    4 ar
   8    3    8 1
   9    4    5 ar
  10    4   38 1
  11    5   46 1
  12    6    7 1
  13    7   18 ar
  14    7   17 ar
  15    8    9 am
  16    8   25 1
  17    9   11 2
  18    9   10 1
  19   10   12 1
  20   10   22 1
  21   10   47 1
  22   12   15 1
  23   12   48 1
  24   12   49 1
  25   13   14 1
  26   13   22 1
  27   13   50 1
  28   13   51 1
  29   14   15 1
  30   14   16 1
  31   14   52 1
  32   15   53 1
  33   15   54 1
  34   16   55 1
  35   16   56 1
  36   16   57 1
  37   17   21 ar
  38   18   19 ar
  39   18   41 1
  40   19   20 ar
  41   19   58 1
  42   20   21 ar
  43   20   24 1
  44   21   59 1
  45   22   60 1
  46   22   61 1
  47   23   62 1
  48   24   33 1
  49   24   63 1
  50   24   64 1
  51   25   26 1
  52   25   27 1
  53   25   65 1
  54   26   30 1
  55   26   66 1
  56   26   67 1
  57   27   28 1
  58   27   68 1
  59   27   69 1
  60   28   29 1
  61   28   70 1
  62   28   71 1
  63   29   30 1
  64   29   31 1
  65   29   72 1
  66   30   73 1
  67   30   74 1
  68   31   32 1
  69   32   75 1
  70   32   76 1
  71   32   77 1
  72   33   34 1
  73   33   37 1
  74   34   35 2
  75   35   36 1
  76   36   37 2
  77   36   78 1
  78   37   79 1
  79   38   39 2
  80   38   40 1
  81   40   80 1
  82   41   42 1
  83   41   43 1
  84   41   44 1

#	End of record

