#	Name: ASD04882471
#	Creating user name:	WinNT
#	Creation time:	15. 06. 2019 20:54

#	Modifying user name:	WinNT
#	Modification time:	15. 06. 2019 20:54

#	Program:	/corina/corina34_cracker 3.40 0067  02.08.2006

@<TRIPOS>MOLECULE
ASD04882471
  79   84    0    0    0
SMALL
NO_CHARGES


@<TRIPOS>ATOM
   1 C1            -0.0215     1.4014    -0.0093 C.ar    
   2 C2            -0.0116     0.0037    -0.0052 C.ar    
   3 C3            -1.2095    -0.7018    -0.0160 C.ar    
   4 C4            -2.4097    -0.0266    -0.0313 C.ar    
   5 C5            -2.4268     1.3710    -0.0356 C.ar    
   6 C6            -1.2241     2.0828    -0.0189 C.ar    
   7 N7             1.1995    -0.6830     0.0094 N.3     
   8 C8             1.3070    -1.5360     1.2012 C.3     
   9 C9             1.3717    -1.4733    -1.2176 C.3     
  10 C10            2.7455    -2.1476    -1.1984 C.3     
  11 N11            2.8530    -3.0006    -0.0065 N.3     
  12 C12            2.6808    -2.2104     1.2204 C.3     
  13 C13           -3.7128     2.0939    -0.0525 C.2     
  14 O14           -3.7267     3.3098    -0.0562 O.2     
  15 N15           -4.8721     1.4067    -0.0639 N.am    
  16 N16            1.1860     2.1109     0.0021 N.am    
  17 C17            4.0679    -3.6895     0.0081 C.ar    
  18 C18            4.0806    -5.0783     0.0122 C.ar    
  19 C19            5.2839    -5.7564     0.0262 C.ar    
  20 C20            6.4749    -5.0541     0.0365 C.ar    
  21 C21            6.4659    -3.6711     0.0324 C.ar    
  22 C22            5.2666    -2.9870     0.0126 C.ar    
  23 C23            1.2290     3.3599     0.5068 C.2     
  24 C24            2.5157     4.0733     0.6000 C.2     
  25 O25            0.2063     3.8983     0.8853 O.2     
  26 N26            3.6891     3.6142     0.2301 N.2     
  27 N27            4.5844     4.5099     0.4581 N.2     
  28 C28            4.0188     5.5684     0.9792 C.2     
  29 O29            2.7057     5.3215     1.0757 O.3     
  30 C30            4.7177     6.8383     1.3914 C.3     
  31 C31            2.7830    -5.8446     0.0020 C.3     
  32 C32            5.8057     6.7305     2.4617 C.3     
  33 C33            6.1899     6.9921     1.0040 C.3     
  34 C34           -6.1490     2.1245    -0.0808 C.3     
  35 C35           -7.3004     1.1170    -0.0912 C.3     
  36 N36           -9.7365     0.9020    -0.1187 N.am    
  37 C37           -8.6340     1.8667    -0.1087 C.3     
  38 C38          -10.3204     0.4061     0.9859 C.2     
  39 C39          -10.3495     0.3575    -1.3360 C.3     
  40 C40          -11.1259    -0.8979    -0.8804 C.3     
  41 C41          -11.4128    -0.5683     0.6041 C.3     
  42 O42          -10.0153     0.6970     2.1231 O.2     
  43 H43           -1.1988    -1.7817    -0.0127 H       
  44 H44           -3.3386    -0.5776    -0.0404 H       
  45 H45           -1.2343     3.1627    -0.0218 H       
  46 H46            1.1887    -0.9261     2.0968 H       
  47 H47            0.5282    -2.2981     1.1744 H       
  48 H48            0.5936    -2.2347    -1.2719 H       
  49 H49            1.3005    -0.8176    -2.0854 H       
  50 H50            2.8638    -2.7575    -2.0940 H       
  51 H51            3.5243    -1.3855    -1.1715 H       
  52 H52            3.4589    -1.4490     1.2747 H       
  53 H53            2.7520    -2.8660     2.0883 H       
  54 H54           -4.8610     0.4367    -0.0610 H       
  55 H55            1.9914     1.7034    -0.3533 H       
  56 H56            5.2945    -6.8363     0.0294 H       
  57 H57            7.4143    -5.5867     0.0481 H       
  58 H58            7.3979    -3.1256     0.0408 H       
  59 H59            5.2602    -1.9070     0.0091 H       
  60 H60            4.1001     7.7364     1.3902 H       
  61 H61            2.4800    -6.0323    -1.0280 H       
  62 H62            2.9177    -6.7941     0.5200 H       
  63 H63            2.0128    -5.2615     0.5068 H       
  64 H64            5.9041     7.5579     3.1644 H       
  65 H65            6.0159     5.7410     2.8677 H       
  66 H66            6.6529     6.1748     0.4511 H       
  67 H67            6.5410     7.9917     0.7477 H       
  68 H68           -6.2242     2.7531     0.8066 H       
  69 H69           -6.2037     2.7479    -0.9733 H       
  70 H70           -7.2252     0.4885    -0.9785 H       
  71 H71           -7.2458     0.4936     0.8013 H       
  72 H72           -8.7092     2.4952     0.7786 H       
  73 H73           -8.6886     2.4901    -1.0012 H       
  74 H74          -11.0328     1.0859    -1.7724 H       
  75 H75           -9.5787     0.0835    -2.0563 H       
  76 H76          -12.0546    -1.0068    -1.4406 H       
  77 H77          -10.5097    -1.7923    -0.9719 H       
  78 H78          -11.3504    -1.4696     1.2139 H       
  79 H79          -12.3927    -0.1027     0.7090 H       
@<TRIPOS>BOND
   1    1    2 ar
   2    1   16 1
   3    1    6 ar
   4    2    3 ar
   5    2    7 1
   6    3    4 ar
   7    3   43 1
   8    4    5 ar
   9    4   44 1
  10    5    6 ar
  11    5   13 1
  12    6   45 1
  13    7    8 1
  14    7    9 1
  15    8   12 1
  16    8   46 1
  17    8   47 1
  18    9   10 1
  19    9   48 1
  20    9   49 1
  21   10   11 1
  22   10   50 1
  23   10   51 1
  24   11   12 1
  25   11   17 1
  26   12   52 1
  27   12   53 1
  28   13   14 2
  29   13   15 am
  30   15   34 1
  31   15   54 1
  32   16   23 am
  33   16   55 1
  34   17   18 ar
  35   17   22 ar
  36   18   19 ar
  37   18   31 1
  38   19   20 ar
  39   19   56 1
  40   20   21 ar
  41   20   57 1
  42   21   22 ar
  43   21   58 1
  44   22   59 1
  45   23   24 1
  46   23   25 2
  47   24   26 2
  48   24   29 1
  49   26   27 1
  50   27   28 2
  51   28   29 1
  52   28   30 1
  53   30   32 1
  54   30   33 1
  55   30   60 1
  56   31   61 1
  57   31   62 1
  58   31   63 1
  59   32   33 1
  60   32   64 1
  61   32   65 1
  62   33   66 1
  63   33   67 1
  64   34   35 1
  65   34   68 1
  66   34   69 1
  67   35   37 1
  68   35   70 1
  69   35   71 1
  70   36   37 1
  71   36   38 am
  72   36   39 1
  73   37   72 1
  74   37   73 1
  75   38   42 2
  76   38   41 1
  77   39   40 1
  78   39   74 1
  79   39   75 1
  80   40   41 1
  81   40   76 1
  82   40   77 1
  83   41   78 1
  84   41   79 1

#	End of record

