#	Name: ASD03240505
#	Creating user name:	WinNT
#	Creation time:	15. 06. 2019 20:35

#	Modifying user name:	WinNT
#	Modification time:	15. 06. 2019 20:35

#	Program:	/corina/corina34_cracker 3.40 0067  02.08.2006

@<TRIPOS>MOLECULE
ASD03240505
  48   51    0    0    0
SMALL
NO_CHARGES


@<TRIPOS>ATOM
   1 C1            -0.0955     1.4030     0.3121 C.ar    
   2 C2            -0.0304     0.0475     0.0447 C.ar    
   3 C3             1.0590     2.1587     0.3449 C.ar    
   4 C4             2.2914     1.5539     0.1080 C.ar    
   5 C5             2.3513     0.1884    -0.1609 C.ar    
   6 C6             1.1907    -0.5581    -0.1908 C.ar    
   7 C7             3.5365     2.3620     0.1415 C.2     
   8 C8             4.8028     1.9008    -0.0712 C.2     
   9 N9             5.6436     2.9482     0.0474 N.pl3   
  10 N10            4.8846     4.0876     0.3405 N.2     
  11 C11            3.6246     3.7451     0.3924 C.2     
  12 C12           -1.2942    -0.7726     0.0103 C.3     
  13 C13           -1.3593    -1.5544    -1.3032 C.3     
  14 C14           -1.2996    -1.7360     1.1691 C.ar    
  15 C15           -2.2104    -1.5757     2.1967 C.ar    
  16 C16           -2.2159    -2.4590     3.2597 C.ar    
  17 C17           -1.3095    -3.5037     3.2954 C.ar    
  18 C18           -0.3982    -3.6636     2.2667 C.ar    
  19 C19           -0.3975    -2.7830     1.2014 C.ar    
  20 N20           -2.6450    -2.2597    -1.3902 N.3     
  21 C21           -2.8453    -2.8264    -2.7318 C.3     
  22 Cl22          -1.3153    -4.6132     4.6305 Cl      
  23 C23           -4.1655    -3.6011    -2.7607 C.3     
  24 O24           -5.2323    -2.7296    -2.3762 O.3     
  25 C25           -5.0699    -2.1602    -1.0744 C.3     
  26 C26           -3.7588    -1.3710    -1.0284 C.3     
  27 H27           -1.0518     1.8717     0.4912 H       
  28 H28            1.0071     3.2171     0.5535 H       
  29 H29            3.3041    -0.2853    -0.3453 H       
  30 H30            1.2360    -1.6169    -0.3988 H       
  31 H31            5.0813     0.8815    -0.2941 H       
  32 H32            6.6079     2.9175    -0.0527 H       
  33 H33            2.7959     4.4061     0.5990 H       
  34 H34           -2.1581    -0.1119     0.0831 H       
  35 H35           -1.2660    -0.8643    -2.1418 H       
  36 H36           -0.5449    -2.2782    -1.3360 H       
  37 H37           -2.9176    -0.7600     2.1689 H       
  38 H38           -2.9272    -2.3335     4.0626 H       
  39 H39            0.3095    -4.4789     2.2940 H       
  40 H40            0.3139    -2.9077     0.3984 H       
  41 H41           -2.8796    -2.0213    -3.4656 H       
  42 H42           -2.0224    -3.5008    -2.9686 H       
  43 H43           -4.3462    -3.9749    -3.7685 H       
  44 H44           -4.1113    -4.4387    -2.0653 H       
  45 H45           -5.9046    -1.4920    -0.8626 H       
  46 H46           -5.0420    -2.9560    -0.3300 H       
  47 H47           -3.6027    -0.9829    -0.0219 H       
  48 H48           -3.8078    -0.5425    -1.7351 H       
@<TRIPOS>BOND
   1    1    2 ar
   2    1    3 ar
   3    1   27 1
   4    2   12 1
   5    2    6 ar
   6    3    4 ar
   7    3   28 1
   8    4    5 ar
   9    4    7 1
  10    5    6 ar
  11    5   29 1
  12    6   30 1
  13    7    8 2
  14    7   11 1
  15    8    9 1
  16    8   31 1
  17    9   10 1
  18    9   32 1
  19   10   11 2
  20   11   33 1
  21   12   13 1
  22   12   14 1
  23   12   34 1
  24   13   20 1
  25   13   35 1
  26   13   36 1
  27   14   15 ar
  28   14   19 ar
  29   15   16 ar
  30   15   37 1
  31   16   17 ar
  32   16   38 1
  33   17   18 ar
  34   17   22 1
  35   18   19 ar
  36   18   39 1
  37   19   40 1
  38   20   21 1
  39   20   26 1
  40   21   23 1
  41   21   41 1
  42   21   42 1
  43   23   24 1
  44   23   43 1
  45   23   44 1
  46   24   25 1
  47   25   26 1
  48   25   45 1
  49   25   46 1
  50   26   47 1
  51   26   48 1

#	End of record

