#	Name: ASD01810744
#	Creating user name:	WinNT
#	Creation time:	15. 06. 2019 19:25

#	Modifying user name:	WinNT
#	Modification time:	15. 06. 2019 19:25

#	Program:	/corina/corina34_cracker 3.40 0067  02.08.2006

@<TRIPOS>MOLECULE
ASD01810744
  53   56    0    0    0
SMALL
NO_CHARGES


@<TRIPOS>ATOM
   1 C1            -0.8898    -0.1876     0.3484 C.1     
   2 C2            -0.7715     1.2381     0.2833 C.ar    
   3 C3             0.4870     1.8332     0.1756 C.ar    
   4 C4             0.5937     3.2071     0.1133 C.ar    
   5 C5            -0.5427     3.9951     0.1578 C.ar    
   6 C6            -1.7929     3.4121     0.2649 C.ar    
   7 C7            -1.9146     2.0391     0.3213 C.ar    
   8 N8            -0.9836    -1.3185     0.4001 N.1     
   9 N9            -1.4503     8.1287     0.0545 N.am    
  10 C10           -1.0191     7.5364    -1.2191 C.3     
  11 C11           -1.1767     6.0150    -1.1338 C.3     
  12 C12           -0.4182     5.4954     0.0897 C.3     
  13 C13           -1.0089     6.1141     1.3588 C.3     
  14 C14           -0.8494     7.6367     1.3017 C.3     
  15 C15           -2.3754     9.1085     0.0778 C.2     
  16 C16           -2.8712     9.6875    -1.1892 C.ar    
  17 C17           -4.2276     9.9665    -1.3460 C.ar    
  18 C18           -4.6861    10.5121    -2.5423 C.ar    
  19 C19           -3.7857    10.7761    -3.5763 C.ar    
  20 C20           -2.4431    10.4975    -3.4148 C.ar    
  21 C21           -1.9806     9.9613    -2.2293 C.ar    
  22 O22           -2.8021     9.5164     1.1404 O.2     
  23 N23           -8.2061    10.9881    -2.3224 N.2     
  24 N24           -7.0774    10.6145    -1.8336 N.2     
  25 C25           -6.1246    10.8109    -2.7175 C.2     
  26 N26           -6.7156    11.3448    -3.8304 N.pl3   
  27 C27           -8.0408    11.4408    -3.5363 C.2     
  28 C28           -9.1198    11.9712    -4.4449 C.3     
  29 O29           -8.5413    12.3695    -5.6894 O.3     
  30 C30           -9.4842    12.8902    -6.6284 C.3     
  31 H31            1.3749     1.2193     0.1415 H       
  32 H32            1.5665     3.6688     0.0300 H       
  33 H33           -2.6759     4.0330     0.2994 H       
  34 H34           -2.8913     1.5850     0.4000 H       
  35 H35           -1.6370     7.9229    -2.0296 H       
  36 H36            0.0260     7.7858    -1.4028 H       
  37 H37           -2.2331     5.7633    -1.0408 H       
  38 H38           -0.7708     5.5561    -2.0353 H       
  39 H39            0.6337     5.7692     0.0082 H       
  40 H40           -2.0669     5.8615     1.4283 H       
  41 H41           -0.4836     5.7258     2.2313 H       
  42 H42            0.2095     7.8942     1.3236 H       
  43 H43           -1.3554     8.0893     2.1545 H       
  44 H44           -4.9201     9.7601    -0.5434 H       
  45 H45           -4.1403    11.1989    -4.5047 H       
  46 H46           -1.7509    10.7033    -4.2179 H       
  47 H47           -0.9286     9.7495    -2.1078 H       
  48 H48           -6.2798    11.6023    -4.6579 H       
  49 H49           -9.8613    11.1922    -4.6217 H       
  50 H50           -9.5998    12.8301    -3.9759 H       
  51 H51           -8.9667    13.1694    -7.5462 H       
  52 H52          -10.2334    12.1302    -6.8505 H       
  53 H53           -9.9719    13.7682    -6.2047 H       
@<TRIPOS>BOND
   1    1    2 1
   2    1    8 3
   3    2    3 ar
   4    2    7 ar
   5    3    4 ar
   6    3   31 1
   7    4    5 ar
   8    4   32 1
   9    5    6 ar
  10    5   12 1
  11    6    7 ar
  12    6   33 1
  13    7   34 1
  14    9   10 1
  15    9   14 1
  16    9   15 am
  17   10   11 1
  18   10   35 1
  19   10   36 1
  20   11   12 1
  21   11   37 1
  22   11   38 1
  23   12   13 1
  24   12   39 1
  25   13   14 1
  26   13   40 1
  27   13   41 1
  28   14   42 1
  29   14   43 1
  30   15   16 1
  31   15   22 2
  32   16   17 ar
  33   16   21 ar
  34   17   18 ar
  35   17   44 1
  36   18   19 ar
  37   18   25 1
  38   19   20 ar
  39   19   45 1
  40   20   21 ar
  41   20   46 1
  42   21   47 1
  43   23   24 1
  44   23   27 2
  45   24   25 2
  46   25   26 1
  47   26   27 1
  48   26   48 1
  49   27   28 1
  50   28   29 1
  51   28   49 1
  52   28   50 1
  53   29   30 1
  54   30   51 1
  55   30   52 1
  56   30   53 1

#	End of record

