#	Name: ASD06020102
#	Creating user name:	WinNT
#	Creation time:	15. 06. 2019 21:04

#	Modifying user name:	WinNT
#	Modification time:	15. 06. 2019 21:04

#	Program:	/corina/corina34_cracker 3.40 0067  02.08.2006

@<TRIPOS>MOLECULE
ASD06020102
  41   44    0    0    0
SMALL
NO_CHARGES


@<TRIPOS>ATOM
   1 C1            -0.0167     1.3950     0.0029 C.ar    
   2 C2             0.0030    -0.0035     0.0025 C.ar    
   3 C3             1.2299    -0.6765    -0.0198 C.ar    
   4 C4             2.4026     0.1207    -0.0407 C.ar    
   5 C5             2.2924     1.4754    -0.0383 C.ar    
   6 N6             1.1143     2.0788    -0.0177 N.ar    
   7 S7            -1.2860    -1.2018     0.0254 S.3     
   8 C8            -0.0956    -2.4967     0.0035 C.2     
   9 N9             1.1001    -2.0039    -0.0179 N.2     
  10 N10           -1.2339     2.0703     0.0191 N.pl3   
  11 C11           -0.4156    -3.9394     0.0088 C.ar    
  12 C12            0.6113    -4.8862    -0.0100 C.ar    
  13 C13            0.3050    -6.2325    -0.0044 C.ar    
  14 C14           -1.0154    -6.6455     0.0193 C.ar    
  15 C15           -2.0380    -5.7150     0.0380 C.ar    
  16 C16           -1.7469    -4.3634     0.0385 C.ar    
  17 F17           -2.7468    -3.4551     0.0626 F       
  18 Cl18           2.2689    -4.3713    -0.0409 Cl      
  19 C19           -0.1544     5.4476     0.4363 C.ar    
  20 N20           -0.1345     4.1344     0.3296 N.ar    
  21 C21           -1.2587     3.4525     0.1315 C.ar    
  22 C22           -2.4646     4.1503     0.0379 C.ar    
  23 C23           -2.4367     5.5260     0.1558 C.ar    
  24 N24           -1.2755     6.1348     0.3525 N.ar    
  25 C25           -3.7106     6.3255     0.0616 C.3     
  26 C26           -3.8593     7.1970     1.3104 C.3     
  27 N27           -3.6639     7.1824    -1.1307 N.3     
  28 H28            3.3767    -0.3454    -0.0581 H       
  29 H29            3.1900     2.0757    -0.0543 H       
  30 H30           -2.0647     1.5742    -0.0481 H       
  31 H31            1.0983    -6.9652    -0.0190 H       
  32 H32           -1.2484    -7.7001     0.0228 H       
  33 H33           -3.0662    -6.0448     0.0561 H       
  34 H34            0.7735     5.9750     0.6015 H       
  35 H35           -3.3957     3.6274    -0.1231 H       
  36 H36           -4.5607     5.6472    -0.0115 H       
  37 H37           -3.0092     7.8753     1.3834 H       
  38 H38           -4.7808     7.7753     1.2422 H       
  39 H39           -3.8940     6.5612     2.1951 H       
  40 H40           -3.5015     6.6354    -1.9629 H       
  41 H41           -4.5076     7.7291    -1.2163 H       
@<TRIPOS>BOND
   1    1    2 ar
   2    1    6 ar
   3    1   10 1
   4    2    3 ar
   5    2    7 1
   6    3    4 ar
   7    3    9 1
   8    4    5 ar
   9    4   28 1
  10    5    6 ar
  11    5   29 1
  12    7    8 1
  13    8    9 2
  14    8   11 1
  15   10   21 1
  16   10   30 1
  17   11   12 ar
  18   11   16 ar
  19   12   13 ar
  20   12   18 1
  21   13   14 ar
  22   13   31 1
  23   14   15 ar
  24   14   32 1
  25   15   16 ar
  26   15   33 1
  27   16   17 1
  28   19   20 ar
  29   19   24 ar
  30   19   34 1
  31   20   21 ar
  32   21   22 ar
  33   22   23 ar
  34   22   35 1
  35   23   24 ar
  36   23   25 1
  37   25   26 1
  38   25   27 1
  39   25   36 1
  40   26   37 1
  41   26   38 1
  42   26   39 1
  43   27   40 1
  44   27   41 1

#	End of record

