#	Name: ASD08070354
#	Creating user name:	WinNT
#	Creation time:	15. 06. 2019 21:14

#	Modifying user name:	WinNT
#	Modification time:	15. 06. 2019 21:14

#	Program:	/corina/corina34_cracker 3.40 0067  02.08.2006

@<TRIPOS>MOLECULE
ASD08070354
  52   53    0    0    0
SMALL
NO_CHARGES


@<TRIPOS>ATOM
   1 C1            -0.0184     1.5028     0.0103 C.2     
   2 C2             0.0021    -0.0041     0.0020 C.3     
   3 O3             1.0197     2.1211     0.0037 O.2     
   4 O4            -1.1898     2.1580     0.0194 O.3     
   5 O5             2.1147    -0.1530     1.2168 O.3     
   6 C6             1.4513    -0.4944    -0.0145 C.3     
   7 O7             1.4981    -1.9332    -0.0418 O.3     
   8 C8             2.6012    -2.2751     0.6867 C.ar    
   9 C9             2.9804    -1.1777     1.4615 C.ar    
  10 C10            4.0840    -1.2659     2.2989 C.ar    
  11 C11            4.8096    -2.4354     2.3691 C.ar    
  12 C12            4.4353    -3.5370     1.5966 C.ar    
  13 C13            3.3238    -3.4499     0.7539 C.ar    
  14 C14            5.2118    -4.7902     1.6699 C.2     
  15 N15            6.2835    -4.8724     2.4830 N.am    
  16 O16            4.8846    -5.7484     0.9966 O.2     
  17 C17           10.6094    -4.6484     2.3783 C.3     
  18 C18            9.1793    -4.9598     1.9323 C.3     
  19 C19            8.4842    -5.8048     3.0017 C.3     
  20 C20            7.0541    -6.1162     2.5557 C.3     
  21 C21            6.4002    -7.0631     3.5640 C.3     
  22 C22            5.0167    -7.4733     3.0555 C.3     
  23 C23            4.3628    -8.4202     4.0638 C.3     
  24 C24           -1.1335     3.6089     0.0270 C.3     
  25 C25           -2.5551     4.1744     0.0369 C.3     
  26 H26           -0.4983    -0.3791     0.8948 H       
  27 H27           -0.5153    -0.3696    -0.8850 H       
  28 H28            1.9864    -0.0754    -0.8666 H       
  29 H29            4.3751    -0.4152     2.8971 H       
  30 H30            5.6681    -2.4998     3.0213 H       
  31 H31            3.0314    -4.2996     0.1549 H       
  32 H32            6.5445    -4.1080     3.0201 H       
  33 H33           10.5849    -4.0967     3.3180 H       
  34 H34           11.1574    -5.5802     2.5181 H       
  35 H35           11.1046    -4.0465     1.6164 H       
  36 H36            8.6313    -4.0281     1.7924 H       
  37 H37            9.2038    -5.5115     0.9925 H       
  38 H38            9.0322    -6.7366     3.1416 H       
  39 H39            8.4597    -5.2531     3.9415 H       
  40 H40            7.0746    -6.5889     1.5738 H       
  41 H41            7.0211    -7.9509     3.6843 H       
  42 H42            6.2991    -6.5577     4.5245 H       
  43 H43            4.3959    -6.5855     2.9353 H       
  44 H44            5.1178    -7.9787     2.0951 H       
  45 H45            4.2617    -7.9147     5.0242 H       
  46 H46            3.3772    -8.7124     3.7015 H       
  47 H47            4.9837    -9.3080     4.1840 H       
  48 H48           -0.6017     3.9472     0.9164 H       
  49 H49           -0.6102     3.9569    -0.8636 H       
  50 H50           -3.0869     3.8361    -0.8525 H       
  51 H51           -3.0784     3.8265     0.9275 H       
  52 H52           -2.5128     5.2636     0.0426 H       
@<TRIPOS>BOND
   1    1    2 1
   2    1    3 2
   3    1    4 1
   4    2    6 1
   5    2   26 1
   6    2   27 1
   7    4   24 1
   8    5    6 1
   9    5    9 1
  10    6    7 1
  11    6   28 1
  12    7    8 1
  13    8    9 ar
  14    8   13 ar
  15    9   10 ar
  16   10   11 ar
  17   10   29 1
  18   11   12 ar
  19   11   30 1
  20   12   13 ar
  21   12   14 1
  22   13   31 1
  23   14   15 am
  24   14   16 2
  25   15   20 1
  26   15   32 1
  27   17   18 1
  28   17   33 1
  29   17   34 1
  30   17   35 1
  31   18   19 1
  32   18   36 1
  33   18   37 1
  34   19   20 1
  35   19   38 1
  36   19   39 1
  37   20   21 1
  38   20   40 1
  39   21   22 1
  40   21   41 1
  41   21   42 1
  42   22   23 1
  43   22   43 1
  44   22   44 1
  45   23   45 1
  46   23   46 1
  47   23   47 1
  48   24   25 1
  49   24   48 1
  50   24   49 1
  51   25   50 1
  52   25   51 1
  53   25   52 1

#	End of record

