#	Name: ASD00310368
#	Creating user name:	WinNT
#	Creation time:	15. 06. 2019 18:34

#	Modifying user name:	WinNT
#	Modification time:	15. 06. 2019 18:34

#	Program:	/corina/corina34_cracker 3.40 0067  02.08.2006

@<TRIPOS>MOLECULE
ASD00310368
  43   46    0    0    0
SMALL
NO_CHARGES


@<TRIPOS>ATOM
   1 N1            -0.0162     1.2874     0.0663 N.pl3   
   2 N2            -0.0005     0.0269     0.3081 N.2     
   3 C3             1.2257    -0.4378     0.4211 C.2     
   4 C4             2.1223     0.7092     0.2189 C.ar    
   5 C5             3.4993     0.8995     0.2090 C.ar    
   6 C6             4.0084     2.1697    -0.0248 C.ar    
   7 C7             3.1388     3.2451    -0.2474 C.ar    
   8 C8             1.7859     3.0620    -0.2384 C.ar    
   9 C9             1.2545     1.7964    -0.0064 C.ar    
  10 C10            1.6206    -1.8293     0.6958 C.2     
  11 O11            2.7973    -2.1226     0.7755 O.2     
  12 O12            0.6770    -2.7779     0.8591 O.3     
  13 C13            5.4758     2.3886    -0.0385 C.ar    
  14 C14            6.0705     3.0700    -1.0978 C.ar    
  15 C15            7.4407     3.2716    -1.1045 C.ar    
  16 C16            8.2178     2.7951    -0.0574 C.ar    
  17 C17            7.6283     2.1186     0.9938 C.ar    
  18 C18            6.2623     1.9182     1.0113 C.ar    
  19 O19            8.0247     3.9355    -2.1366 O.3     
  20 C20            7.1648     4.3975    -3.1803 C.3     
  21 C21            9.7085     3.0158    -0.0671 C.3     
  22 C22           10.3957     2.5242    -1.3520 C.3     
  23 C23           11.2666     3.7894    -1.2766 C.3     
  24 C24           10.1181     4.4377    -0.4858 C.3     
  25 O25           10.3441     2.5644     1.1305 O.3     
  26 Cl26           3.7887     4.8285    -0.5374 Cl      
  27 H27           -0.8234     1.8117    -0.0538 H       
  28 H28            4.1663     0.0678     0.3817 H       
  29 H29            1.1271     3.9002    -0.4111 H       
  30 H30            0.9848    -3.6770     1.0377 H       
  31 H31            5.4648     3.4397    -1.9119 H       
  32 H32            8.2371     1.7496     1.8059 H       
  33 H33            5.8039     1.3934     1.8365 H       
  34 H34            6.6520     3.5479    -3.6313 H       
  35 H35            6.4297     5.0878    -2.7665 H       
  36 H36            7.7569     4.9091    -3.9391 H       
  37 H37           10.9570     1.5992    -1.2205 H       
  38 H38            9.7350     2.5000    -2.2186 H       
  39 H39           12.1782     3.6578    -0.6937 H       
  40 H40           11.4462     4.2543    -2.2459 H       
  41 H41            9.3815     4.9366    -1.1155 H       
  42 H42           10.4553     5.0574     0.3451 H       
  43 H43            9.9304     2.8894     1.9419 H       
@<TRIPOS>BOND
   1    1    2 1
   2    1    9 1
   3    1   27 1
   4    2    3 2
   5    3    4 1
   6    3   10 1
   7    4    5 ar
   8    4    9 ar
   9    5    6 ar
  10    5   28 1
  11    6    7 ar
  12    6   13 1
  13    7    8 ar
  14    7   26 1
  15    8    9 ar
  16    8   29 1
  17   10   11 2
  18   10   12 1
  19   12   30 1
  20   13   14 ar
  21   13   18 ar
  22   14   15 ar
  23   14   31 1
  24   15   16 ar
  25   15   19 1
  26   16   17 ar
  27   16   21 1
  28   17   18 ar
  29   17   32 1
  30   18   33 1
  31   19   20 1
  32   20   34 1
  33   20   35 1
  34   20   36 1
  35   21   22 1
  36   21   24 1
  37   21   25 1
  38   22   23 1
  39   22   37 1
  40   22   38 1
  41   23   24 1
  42   23   39 1
  43   23   40 1
  44   24   41 1
  45   24   42 1
  46   25   43 1

#	End of record

