#	Name: ASD01870274
#	Creating user name:	WinNT
#	Creation time:	15. 06. 2019 19:38

#	Modifying user name:	WinNT
#	Modification time:	15. 06. 2019 19:38

#	Program:	/corina/corina34_cracker 3.40 0067  02.08.2006

@<TRIPOS>MOLECULE
ASD01870274
  50   52    0    0    0
SMALL
NO_CHARGES


@<TRIPOS>ATOM
   1 N1            -0.0159     1.3191     0.0093 N.ar    
   2 C2             0.0021    -0.0041     0.0020 C.ar    
   3 C3             1.1067     2.0097     0.0023 C.ar    
   4 N4             2.2846     1.4186    -0.0126 N.ar    
   5 C5             2.3807     0.0988    -0.0206 C.ar    
   6 C6             1.2220    -0.6617    -0.0132 C.ar    
   7 C7             1.2870    -2.1672    -0.0214 C.3     
   8 N8             1.3215    -2.6621     1.3571 N.am    
   9 C9             0.1302    -2.8509     2.0613 C.ar    
  10 C10           -1.0548    -3.0828     1.3750 C.ar    
  11 C11           -2.2310    -3.2696     2.0745 C.ar    
  12 C12           -2.2298    -3.2254     3.4565 C.ar    
  13 C13           -1.0516    -2.9947     4.1431 C.ar    
  14 C14            0.1289    -2.8128     3.4501 C.ar    
  15 S15            2.7730    -2.9975     2.0803 S.o2    
  16 O16            2.4748    -4.0417     2.9968 O.2     
  17 O17            3.6651    -3.2084     0.9945 O.2     
  18 C18            3.1993    -1.4740     2.9679 C.3     
  19 C19            4.6255    -1.5823     3.5110 C.3     
  20 F20            5.5164    -1.7678     2.4484 F       
  21 F21            4.9543    -0.4073     4.1955 F       
  22 F22            4.7100    -2.6708     4.3858 F       
  23 C23           -3.5173    -3.5213     1.3307 C.3     
  24 O24           -3.6912    -4.9494     1.1342 O.3     
  25 C25           -4.8002    -5.3462     0.4805 C.2     
  26 O26           -5.6001    -4.5218     0.0854 O.2     
  27 C27           -5.0437    -6.7840     0.2441 C.ar    
  28 C28           -6.1921    -7.1987    -0.4332 C.ar    
  29 C29           -6.4133    -8.5428    -0.6505 C.ar    
  30 C30           -5.5001    -9.4793    -0.1991 C.ar    
  31 C31           -4.3600    -9.0752     0.4728 C.ar    
  32 C32           -4.1235    -7.7339     0.6918 C.ar    
  33 H33           -0.9214    -0.5640     0.0082 H       
  34 H34            1.0601     3.0886     0.0085 H       
  35 H35            3.3491    -0.3793    -0.0331 H       
  36 H36            0.4086    -2.5661    -0.5287 H       
  37 H37            2.1868    -2.4892    -0.5456 H       
  38 H38           -1.0566    -3.1167     0.2955 H       
  39 H39           -3.1511    -3.3711     4.0010 H       
  40 H40           -1.0542    -2.9604     5.2225 H       
  41 H41            1.0486    -2.6330     3.9869 H       
  42 H42            3.1335    -0.6259     2.2863 H       
  43 H43            2.5052    -1.3295     3.7958 H       
  44 H44           -4.3541    -3.1295     1.9090 H       
  45 H45           -3.4802    -3.0231     0.3619 H       
  46 H46           -6.9059    -6.4688    -0.7857 H       
  47 H47           -7.3013    -8.8650    -1.1739 H       
  48 H48           -5.6783   -10.5304    -0.3716 H       
  49 H49           -3.6515    -9.8114     0.8228 H       
  50 H50           -3.2332    -7.4199     1.2163 H       
@<TRIPOS>BOND
   1    1    2 ar
   2    1    3 ar
   3    2    6 ar
   4    2   33 1
   5    3    4 ar
   6    3   34 1
   7    4    5 ar
   8    5    6 ar
   9    5   35 1
  10    6    7 1
  11    7    8 1
  12    7   36 1
  13    7   37 1
  14    8    9 1
  15    8   15 am
  16    9   10 ar
  17    9   14 ar
  18   10   11 ar
  19   10   38 1
  20   11   12 ar
  21   11   23 1
  22   12   13 ar
  23   12   39 1
  24   13   14 ar
  25   13   40 1
  26   14   41 1
  27   15   16 2
  28   15   17 2
  29   15   18 1
  30   18   19 1
  31   18   42 1
  32   18   43 1
  33   19   20 1
  34   19   21 1
  35   19   22 1
  36   23   24 1
  37   23   44 1
  38   23   45 1
  39   24   25 1
  40   25   26 2
  41   25   27 1
  42   27   28 ar
  43   27   32 ar
  44   28   29 ar
  45   28   46 1
  46   29   30 ar
  47   29   47 1
  48   30   31 ar
  49   30   48 1
  50   31   32 ar
  51   31   49 1
  52   32   50 1

#	End of record

