#	Name: ASD01884037
#	Creating user name:	WinNT
#	Creation time:	15. 06. 2019 19:47

#	Modifying user name:	WinNT
#	Modification time:	15. 06. 2019 19:47

#	Program:	/corina/corina34_cracker 3.40 0067  02.08.2006

@<TRIPOS>MOLECULE
ASD01884037
  50   53    0    0    0
SMALL
NO_CHARGES


@<TRIPOS>ATOM
   1 Cl1            0.0000     0.0000     0.0000 Cl      
   2 H2             0.0000     1.3700     0.0000 H       
   3 C3             8.3004    16.2838     7.4408 C.3     
   4 C4             8.1775    14.7819     7.4284 C.2     
   5 N5             8.1442    14.0121     6.3483 N.2     
   6 C6             8.0305    12.7467     6.7067 C.2     
   7 C7             7.9322    11.3763     6.1784 C.2     
   8 O8             7.9400    11.0749     5.0000 O.2     
   9 N9             7.8325    10.5088     7.2025 N.am    
  10 C10            7.7157     9.0528     7.0903 C.3     
  11 C11            9.1121     8.4276     7.0903 C.3     
  12 C12            9.4709     7.5003     8.2532 C.3     
  13 C13            9.2102     6.9179     6.8626 C.3     
  14 C14            7.8613    11.2786     8.4512 C.3     
  15 N15            7.9878    12.6879     8.0738 N.pl3   
  16 C16            8.0860    13.9670     8.5392 C.2     
  17 C17            8.0896    14.3956     9.9530 C.ar    
  18 C18            7.1719    13.8493    10.8523 C.ar    
  19 C19            7.1777    14.2513    12.1711 C.ar    
  20 C20            8.0941    15.1987    12.6065 C.ar    
  21 O21            8.0960    15.5923    13.9070 O.3     
  22 C22            7.3908    16.7032    14.2372 C.ar    
  23 C23            7.2916    17.0831    15.5724 C.ar    
  24 C24            6.5706    18.2178    15.9029 C.ar    
  25 C25            5.9684    18.9409    14.8846 C.ar    
  26 C26            6.1070    18.5054    13.5684 C.ar    
  27 N27            6.8113    17.4141    13.2877 N.ar    
  28 C28            5.4897    19.2437    12.5080 C.1     
  29 N29            5.0000    19.8294    11.6668 N.1     
  30 C30            9.0111    15.7459    11.7145 C.ar    
  31 F31            9.9016    16.6674    12.1423 F       
  32 C32            9.0150    15.3443    10.3946 C.ar    
  33 H33            9.3540    16.5620     7.4665 H       
  34 H34            7.8383    16.6936     6.5426 H       
  35 H35            7.7978    16.6822     8.3221 H       
  36 H36            7.1452     8.6678     7.9356 H       
  37 H37            7.2044     8.7999     6.1615 H       
  38 H38            9.9064     9.0512     6.6799 H       
  39 H39           10.5015     7.5137     8.6081 H       
  40 H40            8.7122     7.3356     9.0181 H       
  41 H41            8.2799     6.3700     6.7127 H       
  42 H42           10.0692     6.5481     6.3026 H       
  43 H43            6.9367    11.1228     9.0069 H       
  44 H44            8.7162    10.9762     9.0561 H       
  45 H45            6.4578    13.1126    10.5150 H       
  46 H46            6.4678    13.8286    12.8666 H       
  47 H47            7.7720    16.4985    16.3430 H       
  48 H48            6.4789    18.5328    16.9318 H       
  49 H49            5.3986    19.8305    15.1090 H       
  50 H50            9.7296    15.7656     9.7031 H       
@<TRIPOS>BOND
   1    1    2 1
   2    3    4 1
   3    3   33 1
   4    3   34 1
   5    3   35 1
   6    4   16 2
   7    4    5 1
   8    5    6 2
   9    6   15 1
  10    6    7 1
  11    7    8 2
  12    7    9 am
  13    9   10 1
  14    9   14 1
  15   10   11 1
  16   10   36 1
  17   10   37 1
  18   11   13 1
  19   11   12 1
  20   11   38 1
  21   12   13 1
  22   12   39 1
  23   12   40 1
  24   13   41 1
  25   13   42 1
  26   14   15 1
  27   14   43 1
  28   14   44 1
  29   15   16 1
  30   16   17 1
  31   17   32 ar
  32   17   18 ar
  33   18   19 ar
  34   18   45 1
  35   19   20 ar
  36   19   46 1
  37   20   21 1
  38   20   30 ar
  39   21   22 1
  40   22   27 ar
  41   22   23 ar
  42   23   24 ar
  43   23   47 1
  44   24   25 ar
  45   24   48 1
  46   25   26 ar
  47   25   49 1
  48   26   27 ar
  49   26   28 1
  50   28   29 3
  51   30   31 1
  52   30   32 ar
  53   32   50 1

#	End of record

