#	Name: ASD03130023
#	Creating user name:	WinNT
#	Creation time:	15. 06. 2019 20:33

#	Modifying user name:	WinNT
#	Modification time:	15. 06. 2019 20:33

#	Program:	/corina/corina34_cracker 3.40 0067  02.08.2006

@<TRIPOS>MOLECULE
ASD03130023
  83   85    0    0    0
SMALL
NO_CHARGES


@<TRIPOS>ATOM
   1 C1             0.9878    -0.6611    -1.7748 C.3     
   2 O2             0.1483    -0.9007    -0.6435 O.3     
   3 C3             0.7429    -1.4048     0.4708 C.ar    
   4 C4             2.1070    -1.6573     0.4746 C.ar    
   5 C5             2.7116    -2.1696     1.6054 C.ar    
   6 C6             1.9534    -2.4317     2.7395 C.ar    
   7 S7             2.7238    -3.0849     4.1833 S.3     
   8 C8             2.5180    -4.8242     3.9900 C.ar    
   9 C9             1.7745    -5.3262     2.9283 C.ar    
  10 C10            1.6150    -6.6883     2.7794 C.ar    
  11 C11            2.1927    -7.5659     3.6835 C.ar    
  12 C12            2.9332    -7.0876     4.7424 C.ar    
  13 C13            3.1091    -5.7113     4.9048 C.ar    
  14 C14            3.9047    -5.1931     6.0322 C.2     
  15 O15            4.0511    -3.9940     6.1727 O.2     
  16 N16            4.4700    -6.0481     6.9073 N.am    
  17 C17            5.3571    -5.5415     7.9573 C.3     
  18 H18            5.3279    -4.4519     7.9632 H       
  19 C19            4.8941    -6.0716     9.3158 C.3     
  20 C20            3.5398    -5.4977     9.6438 C.2     
  21 N21            2.8793    -5.9146    10.7422 N.am    
  22 O22            3.0442    -4.6607     8.9194 O.2     
  23 C23            6.7877    -6.0119     7.6871 C.3     
  24 C24            7.2878    -5.3904     6.4085 C.ar    
  25 C25            7.0885    -6.0355     5.2023 C.ar    
  26 C26            7.5471    -5.4655     4.0295 C.ar    
  27 C27            8.2047    -4.2500     4.0628 C.ar    
  28 C28            8.4033    -3.6044     5.2689 C.ar    
  29 C29            7.9408    -4.1724     6.4412 C.ar    
  30 C30            8.7056    -3.6290     2.7843 C.3     
  31 C31            7.5270    -3.3858     1.8395 C.3     
  32 C32            9.3907    -2.2975     3.0984 C.3     
  33 C33            9.7077    -4.5732     2.1171 C.3     
  34 S34            1.9785    -9.3026     3.4777 S.o2    
  35 O35            2.1673    -9.8849     4.7601 O.2     
  36 O36            0.7924    -9.4729     2.7138 O.2     
  37 N37            3.2257    -9.8417     2.5311 N.am    
  38 C38            4.4754   -10.2892     3.1510 C.3     
  39 C39            3.0795    -9.8709     1.0737 C.3     
  40 C40            4.1481    -8.9808     0.4359 C.3     
  41 C41            3.2469   -11.3070     0.5731 C.3     
  42 C42            0.5876    -2.1782     2.7348 C.ar    
  43 C43           -0.0141    -1.6610     1.6048 C.ar    
  44 H44            1.4514    -1.5966    -2.0879 H       
  45 H45            0.3894    -0.2604    -2.5929 H       
  46 H46            1.7631     0.0566    -1.5064 H       
  47 H47            2.6962    -1.4534    -0.4072 H       
  48 H48            3.7734    -2.3667     1.6079 H       
  49 H49            1.3210    -4.6492     2.2194 H       
  50 H50            1.0358    -7.0734     1.9532 H       
  51 H51            3.3807    -7.7763     5.4438 H       
  52 H52            4.2894    -6.9989     6.8419 H       
  53 H53            4.8286    -7.1589     9.2785 H       
  54 H54            5.6092    -5.7768    10.0838 H       
  55 H55            3.2756    -6.5840    11.3216 H       
  56 H56            2.0075    -5.5452    10.9533 H       
  57 H57            7.4315    -5.7107     8.5135 H       
  58 H58            6.8015    -7.0977     7.5929 H       
  59 H59            6.5747    -6.9852     5.1762 H       
  60 H60            7.3920    -5.9698     3.0871 H       
  61 H61            8.9173    -2.6550     5.2950 H       
  62 H62            8.0926    -3.6663     7.3831 H       
  63 H63            6.8131    -2.7131     2.3148 H       
  64 H64            7.8893    -2.9366     0.9148 H       
  65 H65            7.0390    -4.3344     1.6158 H       
  66 H66           10.2304    -2.4707     3.7715 H       
  67 H67            9.7530    -1.8483     2.1737 H       
  68 H68            8.6768    -1.6248     3.5737 H       
  69 H69            9.2197    -5.5218     1.8934 H       
  70 H70           10.0700    -4.1240     1.1924 H       
  71 H71           10.5474    -4.7465     2.7902 H       
  72 H72            4.4146   -11.3571     3.3612 H       
  73 H73            5.3064   -10.0994     2.4717 H       
  74 H74            4.6349    -9.7443     4.0815 H       
  75 H75            2.0903    -9.5038     0.8003 H       
  76 H76            5.1373    -9.3479     0.7093 H       
  77 H77            4.0393    -9.0025    -0.6484 H       
  78 H78            4.0289    -7.9577     0.7926 H       
  79 H79            2.4856   -11.9412     1.0274 H       
  80 H80            3.1381   -11.3288    -0.5113 H       
  81 H81            4.2361   -11.6741     0.8464 H       
  82 H82           -0.0027    -2.3820     3.6159 H       
  83 H83           -1.0752    -1.4597     1.6023 H       
@<TRIPOS>BOND
   1    1    2 1
   2    1   44 1
   3    1   45 1
   4    1   46 1
   5    2    3 1
   6    3   43 ar
   7    3    4 ar
   8    4    5 ar
   9    4   47 1
  10    5    6 ar
  11    5   48 1
  12    6    7 1
  13    6   42 ar
  14    7    8 1
  15    8   13 ar
  16    8    9 ar
  17    9   10 ar
  18    9   49 1
  19   10   11 ar
  20   10   50 1
  21   11   12 ar
  22   11   34 1
  23   12   13 ar
  24   12   51 1
  25   13   14 1
  26   14   15 2
  27   14   16 am
  28   16   17 1
  29   16   52 1
  30   17   18 1
  31   17   19 1
  32   17   23 1
  33   19   20 1
  34   19   53 1
  35   19   54 1
  36   20   21 am
  37   20   22 2
  38   21   55 1
  39   21   56 1
  40   23   24 1
  41   23   57 1
  42   23   58 1
  43   24   29 ar
  44   24   25 ar
  45   25   26 ar
  46   25   59 1
  47   26   27 ar
  48   26   60 1
  49   27   28 ar
  50   27   30 1
  51   28   29 ar
  52   28   61 1
  53   29   62 1
  54   30   31 1
  55   30   32 1
  56   30   33 1
  57   31   63 1
  58   31   64 1
  59   31   65 1
  60   32   66 1
  61   32   67 1
  62   32   68 1
  63   33   69 1
  64   33   70 1
  65   33   71 1
  66   34   35 2
  67   34   36 2
  68   34   37 am
  69   37   38 1
  70   37   39 1
  71   38   72 1
  72   38   73 1
  73   38   74 1
  74   39   40 1
  75   39   41 1
  76   39   75 1
  77   40   76 1
  78   40   77 1
  79   40   78 1
  80   41   79 1
  81   41   80 1
  82   41   81 1
  83   42   43 ar
  84   42   82 1
  85   43   83 1

#	End of record

