#	Name: ASD01882303
#	Creating user name:	WinNT
#	Creation time:	15. 06. 2019 19:44

#	Modifying user name:	WinNT
#	Modification time:	15. 06. 2019 19:44

#	Program:	/corina/corina34_cracker 3.40 0067  02.08.2006

@<TRIPOS>MOLECULE
ASD01882303
  39   41    0    0    0
SMALL
NO_CHARGES


@<TRIPOS>ATOM
   1 C1            -0.2272     0.8945     0.4019 C.ar    
   2 C2             0.2631    -0.0093     1.3332 C.ar    
   3 C3             1.5363    -0.5256     1.1891 C.ar    
   4 C4             2.3218    -0.1422     0.1178 C.ar    
   5 C5             1.8356     0.7584    -0.8117 C.ar    
   6 C6             0.5630     1.2776    -0.6721 C.ar    
   7 O7            -1.4815     1.3996     0.5384 O.3     
   8 C8             3.7106    -0.7066    -0.0367 C.3     
   9 C9             4.7003     0.4340    -0.2825 C.3     
  10 C10            4.6711     1.3991     0.9044 C.3     
  11 C11            5.0622     0.6506     2.1802 C.3     
  12 C12            4.0726    -0.4900     2.4259 C.3     
  13 C13            4.1017    -1.4552     1.2391 C.3     
  14 C14            3.7393    -1.6573    -1.2057 C.ar    
  15 C15            2.8590    -2.7221    -1.2524 C.ar    
  16 C16            2.8854    -3.5941    -2.3247 C.ar    
  17 C17            3.7918    -3.4010    -3.3504 C.ar    
  18 C18            4.6715    -2.3357    -3.3041 C.ar    
  19 C19            4.6422    -1.4612    -2.2339 C.ar    
  20 H20           -0.3500    -0.3088     2.1704 H       
  21 H21            1.9185    -1.2290     1.9140 H       
  22 H22            2.4512     1.0566    -1.6474 H       
  23 H23            0.1835     1.9808    -1.3986 H       
  24 H24           -1.5231     2.2143     1.0576 H       
  25 H25            5.7047     0.0258    -0.3942 H       
  26 H26            4.4216     0.9673    -1.1914 H       
  27 H27            5.3761     2.2118     0.7293 H       
  28 H28            3.6666     1.8074     1.0161 H       
  29 H29            6.0667     0.2424     2.0684 H       
  30 H30            5.0414     1.3382     3.0257 H       
  31 H31            4.3512    -1.0233     3.3348 H       
  32 H32            3.0681    -0.0818     2.5377 H       
  33 H33            3.3967    -2.2678     1.4142 H       
  34 H34            5.1062    -1.8634     1.1274 H       
  35 H35            2.1509    -2.8729    -0.4510 H       
  36 H36            2.1981    -4.4264    -2.3609 H       
  37 H37            3.8129    -4.0827    -4.1878 H       
  38 H38            5.3798    -2.1851    -4.1053 H       
  39 H39            5.3269    -0.6268    -2.1995 H       
@<TRIPOS>BOND
   1    1    2 ar
   2    1    6 ar
   3    1    7 1
   4    2    3 ar
   5    2   20 1
   6    3    4 ar
   7    3   21 1
   8    4    5 ar
   9    4    8 1
  10    5    6 ar
  11    5   22 1
  12    6   23 1
  13    7   24 1
  14    8    9 1
  15    8   13 1
  16    8   14 1
  17    9   10 1
  18    9   25 1
  19    9   26 1
  20   10   11 1
  21   10   27 1
  22   10   28 1
  23   11   12 1
  24   11   29 1
  25   11   30 1
  26   12   13 1
  27   12   31 1
  28   12   32 1
  29   13   33 1
  30   13   34 1
  31   14   15 ar
  32   14   19 ar
  33   15   16 ar
  34   15   35 1
  35   16   17 ar
  36   16   36 1
  37   17   18 ar
  38   17   37 1
  39   18   19 ar
  40   18   38 1
  41   19   39 1

#	End of record

