#	Name: ASD02180003
#	Creating user name:	WinNT
#	Creation time:	15. 06. 2019 20:18

#	Modifying user name:	WinNT
#	Modification time:	15. 06. 2019 20:18

#	Program:	/corina/corina34_cracker 3.40 0067  02.08.2006

@<TRIPOS>MOLECULE
ASD02180003
  26   26    0    0    0
SMALL
NO_CHARGES


@<TRIPOS>ATOM
   1 C1            -0.0187     1.5258     0.0104 C.3     
   2 C2             0.0021    -0.0041     0.0020 C.3     
   3 C3            -1.4333    -0.5336     0.0129 C.3     
   4 C4            -1.4129    -2.0405     0.0046 C.2     
   5 C5            -2.6935    -2.8033     0.0127 C.2     
   6 O6            -0.3588    -2.6301    -0.0086 O.2     
   7 O7            -2.6753    -4.1491     0.0053 O.3     
   8 O8            -3.7518    -2.2113     0.0260 O.2     
   9 C9             1.3951     2.0474    -0.0003 C.ar    
  10 C10            2.0321     2.2931    -1.2023 C.ar    
  11 C11            3.3290     2.7715    -1.2121 C.ar    
  12 C12            3.9887     3.0047    -0.0199 C.ar    
  13 C13            3.3514     2.7599     1.1821 C.ar    
  14 C14            2.0530     2.2855     1.1919 C.ar    
  15 H15           -0.5459     1.8868    -0.8726 H       
  16 H16           -0.5289     1.8773     0.9072 H       
  17 H17            0.5123    -0.3556    -0.8948 H       
  18 H18            0.5293    -0.3651     0.8851 H       
  19 H19           -1.9435    -0.1821     0.9097 H       
  20 H20           -1.9605    -0.1726    -0.8702 H       
  21 H21           -3.5308    -4.5997     0.0111 H       
  22 H22            1.5167     2.1109    -2.1337 H       
  23 H23            3.8269     2.9627    -2.1512 H       
  24 H24            5.0022     3.3778    -0.0276 H       
  25 H25            3.8670     2.9417     2.1135 H       
  26 H26            1.5551     2.0943     2.1310 H       
@<TRIPOS>BOND
   1    1    2 1
   2    1    9 1
   3    1   15 1
   4    1   16 1
   5    2    3 1
   6    2   17 1
   7    2   18 1
   8    3    4 1
   9    3   19 1
  10    3   20 1
  11    4    5 1
  12    4    6 2
  13    5    7 1
  14    5    8 2
  15    7   21 1
  16    9   10 ar
  17    9   14 ar
  18   10   11 ar
  19   10   22 1
  20   11   12 ar
  21   11   23 1
  22   12   13 ar
  23   12   24 1
  24   13   14 ar
  25   13   25 1
  26   14   26 1

#	End of record

