#	Name: ASD06710072
#	Creating user name:	WinNT
#	Creation time:	15. 06. 2019 21:08

#	Modifying user name:	WinNT
#	Modification time:	15. 06. 2019 21:08

#	Program:	/corina/corina34_cracker 3.40 0067  02.08.2006

@<TRIPOS>MOLECULE
ASD06710072
  44   45    0    0    0
SMALL
NO_CHARGES


@<TRIPOS>ATOM
   1 C1            -0.0167     1.3782     0.0096 C.ar    
   2 C2             0.0021    -0.0041     0.0020 C.ar    
   3 C3             1.2069    -0.6820    -0.0127 C.ar    
   4 C4             2.3981     0.0193    -0.0203 C.ar    
   5 C5             2.3864     1.4049    -0.0132 C.ar    
   6 C6             1.1738     2.0873     0.0021 C.ar    
   7 O7             1.1571     3.4471     0.0091 O.3     
   8 O8             3.5575     2.0963    -0.0202 O.3     
   9 C9             1.2215    -2.1890    -0.0199 C.3     
  10 C10            1.2127    -2.6921    -1.4648 C.3     
  11 C11            2.5095    -2.2714    -2.1592 C.3     
  12 C12            1.1018    -4.2181    -1.4727 C.3     
  13 C13           -0.1949    -4.6388    -0.7782 C.3     
  14 C14            1.0930    -4.7213    -2.9176 C.3     
  15 C15           -0.2457    -6.1415    -0.6768 C.ar    
  16 C16            0.2827    -6.7762     0.4319 C.ar    
  17 C17            0.2368    -8.1578     0.5267 C.ar    
  18 C18           -0.3419    -8.9035    -0.4958 C.ar    
  19 C19           -0.8697    -8.2611    -1.6043 C.ar    
  20 C20           -0.8257    -6.8821    -1.6900 C.ar    
  21 O21           -0.3889   -10.2598    -0.4075 O.3     
  22 O22            0.7565    -8.7837     1.6165 O.3     
  23 H23           -0.9592     1.9054     0.0169 H       
  24 H24           -0.9265    -0.5556     0.0079 H       
  25 H25            3.3379    -0.5127    -0.0314 H       
  26 H26            1.1605     3.8359     0.8944 H       
  27 H27            3.8882     2.3008    -0.9056 H       
  28 H28            2.1199    -2.5460     0.4837 H       
  29 H29            0.3401    -2.5634     0.5006 H       
  30 H30            0.3616    -2.2632    -1.9937 H       
  31 H31            2.5032    -2.6299    -3.1886 H       
  32 H32            2.5885    -1.1843    -2.1536 H       
  33 H33            3.3606    -2.7003    -1.6303 H       
  34 H34            1.9529    -4.6470    -0.9438 H       
  35 H35           -0.2287    -4.2058     0.2215 H       
  36 H36           -1.0483    -4.2847    -1.3566 H       
  37 H37            2.0169    -4.4215    -3.4123 H       
  38 H38            1.0140    -5.8084    -2.9233 H       
  39 H39            0.2419    -4.2924    -3.4465 H       
  40 H40            0.7316    -6.1951     1.2239 H       
  41 H41           -1.3190    -8.8376    -2.3994 H       
  42 H42           -1.2414    -6.3823    -2.5525 H       
  43 H43           -1.1861   -10.5985     0.0225 H       
  44 H44            0.1234    -8.9109     2.3362 H       
@<TRIPOS>BOND
   1    1    2 ar
   2    1    6 ar
   3    1   23 1
   4    2    3 ar
   5    2   24 1
   6    3    4 ar
   7    3    9 1
   8    4    5 ar
   9    4   25 1
  10    5    6 ar
  11    5    8 1
  12    6    7 1
  13    7   26 1
  14    8   27 1
  15    9   10 1
  16    9   28 1
  17    9   29 1
  18   10   11 1
  19   10   12 1
  20   10   30 1
  21   11   31 1
  22   11   32 1
  23   11   33 1
  24   12   13 1
  25   12   14 1
  26   12   34 1
  27   13   15 1
  28   13   35 1
  29   13   36 1
  30   14   37 1
  31   14   38 1
  32   14   39 1
  33   15   16 ar
  34   15   20 ar
  35   16   17 ar
  36   16   40 1
  37   17   18 ar
  38   17   22 1
  39   18   19 ar
  40   18   21 1
  41   19   20 ar
  42   19   41 1
  43   20   42 1
  44   21   43 1
  45   22   44 1

#	End of record

