#	Name: ASD08150966
#	Creating user name:	WinNT
#	Creation time:	15. 06. 2019 21:16

#	Modifying user name:	WinNT
#	Modification time:	15. 06. 2019 21:16

#	Program:	/corina/corina34_cracker 3.40 0067  02.08.2006

@<TRIPOS>MOLECULE
ASD08150966
  62   67    0    0    0
SMALL
NO_CHARGES


@<TRIPOS>ATOM
   1 N1            -1.0694     2.0632     0.1209 N.2     
   2 C2            -1.1521     0.7749    -0.0435 C.2     
   3 N3             0.0726     0.2661    -0.3592 N.pl3   
   4 C4             0.9580     1.3137    -0.3887 C.ar    
   5 N5             2.2588     1.4365    -0.6313 N.ar    
   6 C6             2.8421     2.6157    -0.5825 C.ar    
   7 N7             2.1811     3.7220    -0.2950 N.ar    
   8 C8             0.8774     3.6978    -0.0379 C.ar    
   9 C9             0.2099     2.4621    -0.0783 C.ar    
  10 N10            0.1933     4.8626     0.2630 N.pl3   
  11 C11            0.9062     6.1418     0.3009 C.3     
  12 C12            1.0688     6.6775    -1.1230 C.3     
  13 N13            0.6506    10.0762     3.1871 N.ar    
  14 C14           -0.0286    10.9389     3.9034 C.ar    
  15 C15           -1.4136    10.8566     4.0297 C.ar    
  16 C16           -2.0974     9.8575     3.3976 C.ar    
  17 C17           -1.3641     8.9333     2.6295 C.ar    
  18 C18           -2.0003     7.8801     1.9514 C.ar    
  19 C19           -1.2622     7.0019     1.2154 C.ar    
  20 C20            0.1204     7.1307     1.1229 C.ar    
  21 C21            0.7800     8.1504     1.7737 C.ar    
  22 C22            0.0425     9.0759     2.5440 C.ar    
  23 N23            2.1667     8.2673     1.6728 N.3     
  24 C24            2.8070     8.0869     2.9825 C.3     
  25 C25            4.3280     8.0415     2.8018 C.3     
  26 N26            4.7471     9.2435     2.0651 N.am    
  27 C27            4.0543     9.5662     0.8084 C.3     
  28 C28            2.5440     9.5516     1.0676 C.3     
  29 C29            5.7393    10.0286     2.5293 C.2     
  30 C30            6.0802    11.2833     1.8252 C.ar    
  31 C31            6.2786    12.4606     2.5480 C.ar    
  32 C32            6.5974    13.6294     1.8836 C.ar    
  33 C33            6.7197    13.6328     0.5031 C.ar    
  34 C34            6.5239    12.4684    -0.2169 C.ar    
  35 C35            6.2104    11.2937     0.4358 C.ar    
  36 O36            6.3540     9.7052     3.5269 O.2     
  37 F37            6.7896    14.7706     2.5807 F       
  38 Cl38          -3.7238     7.6972     2.0511 Cl      
  39 H39           -2.0574     0.1944     0.0559 H       
  40 H40            0.2800    -0.6657    -0.5311 H       
  41 H41            3.9010     2.6805    -0.7849 H       
  42 H42           -0.7583     4.8319     0.4487 H       
  43 H43            1.8892     5.9968     0.7490 H       
  44 H44            0.0915     6.7388    -1.6019 H       
  45 H45            1.5195     7.6693    -1.0888 H       
  46 H46            1.7111     6.0060    -1.6927 H       
  47 H47            0.4993    11.7339     4.4090 H       
  48 H48           -1.9460    11.5819     4.6271 H       
  49 H49           -3.1710     9.7784     3.4849 H       
  50 H50           -1.7574     6.1945     0.6965 H       
  51 H51            2.5428     8.9196     3.6343 H       
  52 H52            2.4657     7.1528     3.4286 H       
  53 H53            4.8123     8.0231     3.7782 H       
  54 H54            4.6032     7.1510     2.2366 H       
  55 H55            4.3576    10.5559     0.4668 H       
  56 H56            4.3032     8.8223     0.0516 H       
  57 H57            2.0120     9.6797     0.1249 H       
  58 H58            2.2835    10.3639     1.7461 H       
  59 H59            6.1830    12.4581     3.6238 H       
  60 H60            6.9687    14.5485    -0.0125 H       
  61 H61            6.6203    12.4776    -1.2925 H       
  62 H62            6.0619    10.3847    -0.1281 H       
@<TRIPOS>BOND
   1    1    2 2
   2    1    9 1
   3    2    3 1
   4    2   39 1
   5    3    4 1
   6    3   40 1
   7    4    5 ar
   8    4    9 ar
   9    5    6 ar
  10    6    7 ar
  11    6   41 1
  12    7    8 ar
  13    8    9 ar
  14    8   10 1
  15   10   11 1
  16   10   42 1
  17   11   12 1
  18   11   20 1
  19   11   43 1
  20   12   44 1
  21   12   45 1
  22   12   46 1
  23   13   14 ar
  24   13   22 ar
  25   14   15 ar
  26   14   47 1
  27   15   16 ar
  28   15   48 1
  29   16   17 ar
  30   16   49 1
  31   17   18 ar
  32   17   22 ar
  33   18   19 ar
  34   18   38 1
  35   19   20 ar
  36   19   50 1
  37   20   21 ar
  38   21   22 ar
  39   21   23 1
  40   23   24 1
  41   23   28 1
  42   24   25 1
  43   24   51 1
  44   24   52 1
  45   25   26 1
  46   25   53 1
  47   25   54 1
  48   26   27 1
  49   26   29 am
  50   27   28 1
  51   27   55 1
  52   27   56 1
  53   28   57 1
  54   28   58 1
  55   29   30 1
  56   29   36 2
  57   30   31 ar
  58   30   35 ar
  59   31   32 ar
  60   31   59 1
  61   32   33 ar
  62   32   37 1
  63   33   34 ar
  64   33   60 1
  65   34   35 ar
  66   34   61 1
  67   35   62 1

#	End of record

