#	Name: ASD01881512
#	Creating user name:	WinNT
#	Creation time:	15. 06. 2019 19:42

#	Modifying user name:	WinNT
#	Modification time:	15. 06. 2019 19:42

#	Program:	/corina/corina34_cracker 3.40 0067  02.08.2006

@<TRIPOS>MOLECULE
ASD01881512
  36   39    0    0    0
SMALL
NO_CHARGES


@<TRIPOS>ATOM
   1 C1            -0.0168     1.3906     0.0097 C.ar    
   2 C2             0.0021    -0.0041     0.0020 C.ar    
   3 C3             1.2216    -0.6842    -0.0133 C.ar    
   4 C4             2.3982     0.0224    -0.0207 C.ar    
   5 C5             2.3853     1.4211    -0.0130 C.ar    
   6 C6             1.1635     2.0993     0.0022 C.ar    
   7 C7             3.8491    -0.3901    -0.0367 C.3     
   8 N8             4.6290     0.8527    -0.0375 N.am    
   9 C9             3.7814     1.8956    -0.0238 C.2     
  10 C10            6.0912     0.9420    -0.0502 C.3     
  11 O11            4.1178     3.0638    -0.0204 O.2     
  12 C12            1.1379     3.6061     0.0106 C.3     
  13 C13           -1.2714    -0.7637     0.0106 C.ar    
  14 C14           -2.4981    -0.0937     0.0263 C.ar    
  15 C15           -3.6585    -0.8487     0.0333 C.ar    
  16 C16           -3.5678    -2.2285     0.0245 C.ar    
  17 N17           -2.3954    -2.8332     0.0097 N.ar    
  18 C18           -1.2648    -2.1576    -0.0028 C.ar    
  19 C19            6.7444     1.6684    -1.2278 C.3     
  20 C20            6.7164     2.3234     0.1546 C.3     
  21 H21           -0.9603     1.9162     0.0170 H       
  22 H22            1.2389    -1.7641    -0.0189 H       
  23 H23            4.0814    -0.9776     0.8516 H       
  24 H24            4.0644    -0.9680    -0.9355 H       
  25 H25            6.6183     0.0839     0.3668 H       
  26 H26            1.1220     3.9749    -1.0150 H       
  27 H27            0.2468     3.9514     0.5348 H       
  28 H28            2.0265     3.9817     0.5180 H       
  29 H29           -2.5396     0.9855     0.0332 H       
  30 H30           -4.6241    -0.3653     0.0458 H       
  31 H31           -4.4711    -2.8205     0.0303 H       
  32 H32           -0.3243    -2.6883    -0.0148 H       
  33 H33            7.7014     1.2883    -1.5853 H       
  34 H34            6.0862     2.0797    -1.9931 H       
  35 H35            6.0397     3.1657     0.2988 H       
  36 H36            7.6549     2.3743     0.7066 H       
@<TRIPOS>BOND
   1    1    2 ar
   2    1    6 ar
   3    1   21 1
   4    2    3 ar
   5    2   13 1
   6    3    4 ar
   7    3   22 1
   8    4    5 ar
   9    4    7 1
  10    5    6 ar
  11    5    9 1
  12    6   12 1
  13    7    8 1
  14    7   23 1
  15    7   24 1
  16    8    9 am
  17    8   10 1
  18    9   11 2
  19   10   19 1
  20   10   20 1
  21   10   25 1
  22   12   26 1
  23   12   27 1
  24   12   28 1
  25   13   14 ar
  26   13   18 ar
  27   14   15 ar
  28   14   29 1
  29   15   16 ar
  30   15   30 1
  31   16   17 ar
  32   16   31 1
  33   17   18 ar
  34   18   32 1
  35   19   20 1
  36   19   33 1
  37   19   34 1
  38   20   35 1
  39   20   36 1

#	End of record

