#	Name: ASD01812775
#	Creating user name:	WinNT
#	Creation time:	15. 06. 2019 19:29

#	Modifying user name:	WinNT
#	Modification time:	15. 06. 2019 19:29

#	Program:	/corina/corina34_cracker 3.40 0067  02.08.2006

@<TRIPOS>MOLECULE
ASD01812775
  46   49    0    0    0
SMALL
NO_CHARGES


@<TRIPOS>ATOM
   1 C1            -0.0167     1.3765     0.0233 C.ar    
   2 C2             0.0018    -0.0040     0.0178 C.ar    
   3 C3             1.2084    -0.6873    -0.0064 C.ar    
   4 C4             2.3936     0.0073    -0.0256 C.ar    
   5 C5             2.3937     1.4055    -0.0208 C.ar    
   6 C6             1.1718     2.0915     0.0041 C.ar    
   7 C7             3.8405    -0.4180    -0.0538 C.3     
   8 N8             4.6306     0.8185    -0.0642 N.am    
   9 C9             3.7910     1.8681    -0.0451 C.2     
  10 C10            6.0933     0.8963    -0.0905 C.3     
  11 C11            6.5690     0.9275    -1.5201 C.ar    
  12 C12            6.5276     2.1110    -2.2375 C.ar    
  13 C13            6.9651     2.1395    -3.5506 C.ar    
  14 C14            7.4435     0.9846    -4.1447 C.ar    
  15 C15            7.4840    -0.1980    -3.4252 C.ar    
  16 C16            7.0519    -0.2241    -2.1128 C.ar    
  17 O17            1.1515     3.4479     0.0091 O.3     
  18 O18            4.1366     3.0338    -0.0471 O.2     
  19 F19            7.8703     1.0109    -5.4263 F       
  20 C20           -0.1276     4.0779    -0.0868 C.3     
  21 F21            6.0599     3.2374    -1.6564 F       
  22 C22            0.0357     5.4819    -0.6770 C.3     
  23 C23           -1.3276     6.1779    -0.7027 C.3     
  24 O24           -1.8630     6.2230     0.6214 O.3     
  25 C25           -2.0816     4.9376     1.2064 C.3     
  26 C26           -0.7486     4.1918     1.3089 C.3     
  27 O27            0.5471     5.3839    -2.0078 O.3     
  28 H28           -0.9603     1.9017     0.0381 H       
  29 H29           -0.9274    -0.5542     0.0328 H       
  30 H30            1.2163    -1.7672    -0.0099 H       
  31 H31            4.0758    -1.0055     0.8337 H       
  32 H32            4.0427    -0.9994    -0.9533 H       
  33 H33            6.4182     1.8027     0.4204 H       
  34 H34            6.5126     0.0252     0.4130 H       
  35 H35            6.9328     3.0621    -4.1111 H       
  36 H36            7.8573    -1.0993    -3.8886 H       
  37 H37            7.0877    -1.1458    -1.5512 H       
  38 H38           -0.7786     3.4855    -0.7297 H       
  39 H39            0.7280     6.0572    -0.0623 H       
  40 H40           -1.2103     7.1930    -1.0822 H       
  41 H41           -2.0065     5.6236    -1.3507 H       
  42 H42           -2.5075     5.0592     2.2024 H       
  43 H43           -2.7704     4.3671     0.5834 H       
  44 H44           -0.9194     3.1944     1.7140 H       
  45 H45           -0.0731     4.7414     1.9644 H       
  46 H46            0.6757     6.2375    -2.4436 H       
@<TRIPOS>BOND
   1    1    2 ar
   2    1    6 ar
   3    1   28 1
   4    2    3 ar
   5    2   29 1
   6    3    4 ar
   7    3   30 1
   8    4    7 1
   9    4    5 ar
  10    5    6 ar
  11    5    9 1
  12    6   17 1
  13    7    8 1
  14    7   31 1
  15    7   32 1
  16    8    9 am
  17    8   10 1
  18    9   18 2
  19   10   11 1
  20   10   33 1
  21   10   34 1
  22   11   12 ar
  23   11   16 ar
  24   12   13 ar
  25   12   21 1
  26   13   14 ar
  27   13   35 1
  28   14   15 ar
  29   14   19 1
  30   15   16 ar
  31   15   36 1
  32   16   37 1
  33   17   20 1
  34   20   22 1
  35   20   26 1
  36   20   38 1
  37   22   27 1
  38   22   23 1
  39   22   39 1
  40   23   24 1
  41   23   40 1
  42   23   41 1
  43   24   25 1
  44   25   26 1
  45   25   42 1
  46   25   43 1
  47   26   44 1
  48   26   45 1
  49   27   46 1

#	End of record

