#	Name: ASD02030774
#	Creating user name:	WinNT
#	Creation time:	15. 06. 2019 20:16

#	Modifying user name:	WinNT
#	Modification time:	15. 06. 2019 20:16

#	Program:	/corina/corina34_cracker 3.40 0067  02.08.2006

@<TRIPOS>MOLECULE
ASD02030774
  38   41    0    0    0
SMALL
NO_CHARGES


@<TRIPOS>ATOM
   1 C1             1.2505    -0.4952    -0.7337 C.3     
   2 C2             0.0021    -0.0041     0.0020 C.3     
   3 C3            -0.1384    -0.7828    -1.3075 C.3     
   4 C4             2.0746     0.5122    -1.4212 C.1     
   5 N5             2.7107     1.2897    -1.9518 N.1     
   6 C6             0.0691    -1.1984     3.5519 C.2     
   7 N7             0.8263    -1.0640     4.6395 N.2     
   8 C8             1.9207    -0.3195     4.6291 C.2     
   9 C9             2.2987     0.3385     3.4748 C.2     
  10 C10            1.5084     0.2017     2.3279 C.2     
  11 N11            0.4009    -0.5685     2.3851 N.am    
  12 C12           -1.0832    -2.0038     3.6048 C.2     
  13 C13           -1.8571    -2.1406     2.4916 C.2     
  14 C14           -1.4934    -1.4773     1.3103 C.2     
  15 C15           -0.3780    -0.7121     1.2769 C.2     
  16 O16            1.8153     0.7703     1.2919 O.2     
  17 C17            2.7546    -0.1891     5.8775 C.3     
  18 N18            2.2071     0.8758     6.7215 N.pl3   
  19 N19            1.2357     0.7198     7.7187 N.2     
  20 C20            1.0044     1.8919     8.2519 C.2     
  21 C21            1.8195     2.8317     7.6128 C.2     
  22 C22            2.5537     2.1797     6.6795 C.2     
  23 C23            0.0274     2.1800     9.3626 C.3     
  24 F24           -0.5215     0.9787     9.8241 F       
  25 F25            0.6914     2.8231    10.4127 F       
  26 F26           -0.9948     3.0055     8.8821 F       
  27 Cl27           3.7268     2.8936     5.6175 Cl      
  28 Cl28          -2.4715    -1.6456    -0.1141 Cl      
  29 H29            1.7968    -1.3304    -0.2956 H       
  30 H30           -0.2089     1.0650    -0.0231 H       
  31 H31           -0.4418    -0.2260    -2.1941 H       
  32 H32           -0.5057    -1.8072    -1.2469 H       
  33 H33            3.1897     0.9486     3.4576 H       
  34 H34           -1.3523    -2.5095     4.5203 H       
  35 H35           -2.7441    -2.7562     2.5184 H       
  36 H36            2.7384    -1.1314     6.4253 H       
  37 H37            3.7813     0.0550     5.6048 H       
  38 H38            1.8596     3.8893     7.8281 H       
@<TRIPOS>BOND
   1    1    2 1
   2    1    3 1
   3    1    4 1
   4    1   29 1
   5    2    3 1
   6    2   15 1
   7    2   30 1
   8    3   31 1
   9    3   32 1
  10    4    5 3
  11    6    7 2
  12    6   11 1
  13    6   12 1
  14    7    8 1
  15    8    9 2
  16    8   17 1
  17    9   10 1
  18    9   33 1
  19   10   11 am
  20   10   16 2
  21   11   15 1
  22   12   13 2
  23   12   34 1
  24   13   14 1
  25   13   35 1
  26   14   15 2
  27   14   28 1
  28   17   18 1
  29   17   36 1
  30   17   37 1
  31   18   19 1
  32   18   22 1
  33   19   20 2
  34   20   21 1
  35   20   23 1
  36   21   22 2
  37   21   38 1
  38   22   27 1
  39   23   24 1
  40   23   25 1
  41   23   26 1

#	End of record

