#	Name: ASD01885450
#	Creating user name:	WinNT
#	Creation time:	15. 06. 2019 19:49

#	Modifying user name:	WinNT
#	Modification time:	15. 06. 2019 19:49

#	Program:	/corina/corina34_cracker 3.40 0067  02.08.2006

@<TRIPOS>MOLECULE
ASD01885450
  36   38    0    0    0
SMALL
NO_CHARGES


@<TRIPOS>ATOM
   1 C1            -0.0387     1.4162     0.0072 C.ar    
   2 C2            -0.0161     0.0212     0.0396 C.ar    
   3 N3            -1.1308    -0.7515     0.0522 N.2     
   4 C4            -2.1917    -0.5690    -0.6469 C.2     
   5 C5            -2.3339     0.6049    -1.5799 C.3     
   6 C6            -2.2860     1.8674    -0.7568 C.2     
   7 N7            -1.2073     2.1668    -0.0335 N.am    
   8 C8             1.1625     2.1208     0.0092 C.ar    
   9 C9             2.3797     1.4477     0.0376 C.ar    
  10 C10            2.4001     0.0508     0.0644 C.ar    
  11 C11            1.2209    -0.6499     0.0655 C.ar    
  12 C12           -3.2989    -1.5330    -0.5342 C.ar    
  13 O13           -3.2384     2.6185    -0.7543 O.2     
  14 C14           -3.1336    -2.7076     0.2076 C.ar    
  15 C15           -4.1708    -3.6122     0.3133 C.ar    
  16 C16           -5.3776    -3.3655    -0.3109 C.ar    
  17 C17           -5.5578    -2.1964    -1.0555 C.ar    
  18 C18           -4.5184    -1.2750    -1.1624 C.ar    
  19 C19           -6.8100    -1.9437    -1.7026 C.1     
  20 N20           -7.8034    -1.7432    -2.2159 N.1     
  21 C21            3.6484     2.2084     0.0390 C.2     
  22 N22            3.6271     3.5112     0.0135 N.2     
  23 N23            4.8532     1.5393     0.0672 N.pl3   
  24 H24           -1.5156     0.6039    -2.2999 H       
  25 H25           -3.2871     0.5441    -2.1051 H       
  26 H26           -1.2406     2.9706     0.5083 H       
  27 H27            1.1490     3.2005    -0.0118 H       
  28 H28            3.3426    -0.4762     0.0840 H       
  29 H29            1.2419    -1.7295     0.0861 H       
  30 H30           -2.1923    -2.9072     0.6981 H       
  31 H31           -4.0378    -4.5176     0.8869 H       
  32 H32           -6.1844    -4.0782    -0.2239 H       
  33 H33           -4.6525    -0.3699    -1.7362 H       
  34 H34            4.4590     4.0100     0.0144 H       
  35 H35            4.8691     0.5696     0.0861 H       
  36 H36            5.6851     2.0381     0.0680 H       
@<TRIPOS>BOND
   1    1    2 ar
   2    1    8 ar
   3    1    7 1
   4    2    3 1
   5    2   11 ar
   6    3    4 2
   7    4    5 1
   8    4   12 1
   9    5    6 1
  10    5   24 1
  11    5   25 1
  12    6    7 am
  13    6   13 2
  14    7   26 1
  15    8    9 ar
  16    8   27 1
  17    9   10 ar
  18    9   21 1
  19   10   11 ar
  20   10   28 1
  21   11   29 1
  22   12   14 ar
  23   12   18 ar
  24   14   15 ar
  25   14   30 1
  26   15   16 ar
  27   15   31 1
  28   16   17 ar
  29   16   32 1
  30   17   18 ar
  31   17   19 1
  32   18   33 1
  33   19   20 3
  34   21   22 2
  35   21   23 1
  36   22   34 1
  37   23   35 1
  38   23   36 1

#	End of record

