#	Name: ASD01510028
#	Creating user name:	WinNT
#	Creation time:	15. 06. 2019 19:21

#	Modifying user name:	WinNT
#	Modification time:	15. 06. 2019 19:21

#	Program:	/corina/corina34_cracker 3.40 0067  02.08.2006

@<TRIPOS>MOLECULE
ASD01510028
  60   62    0    0    0
SMALL
NO_CHARGES


@<TRIPOS>ATOM
   1 C1            -0.0187     1.5258     0.0104 C.3     
   2 C2             0.0021    -0.0041     0.0020 C.3     
   3 O3            -1.3386    -0.4987     0.0122 O.3     
   4 C4            -1.4979    -1.8447     0.0065 C.ar    
   5 N5            -0.4391    -2.6479    -0.0080 N.ar    
   6 C6            -0.5866    -3.9642    -0.0132 C.ar    
   7 N7            -1.7840    -4.5304    -0.0047 N.ar    
   8 C8            -2.8870    -3.7891     0.0098 C.ar    
   9 C9            -2.7713    -2.4033     0.0214 C.ar    
  10 I10           -4.4759    -1.1856     0.0452 I       
  11 O11           -4.1087    -4.3762     0.0179 O.3     
  12 C12           -4.1420    -5.8048     0.0100 C.3     
  13 C13           -5.5959    -6.2811     0.0209 C.3     
  14 N14            0.5396    -4.7687    -0.0283 N.pl3   
  15 C15            0.3981    -6.2269    -0.0342 C.3     
  16 C16            0.3356    -6.7197    -1.4570 C.ar    
  17 C17            1.4995    -7.0610    -2.1209 C.ar    
  18 C18            1.4449    -7.5130    -3.4251 C.ar    
  19 C19            0.2210    -7.6243    -4.0688 C.ar    
  20 C20           -0.9453    -7.2812    -3.4006 C.ar    
  21 C21           -0.8859    -6.8350    -2.0945 C.ar    
  22 O22            0.1647    -8.0683    -5.3520 O.3     
  23 C23           -1.1294    -8.1575    -5.9515 C.3     
  24 C24            1.8731    -4.1622    -0.0383 C.3     
  25 C25            2.3442    -3.9613     1.3790 C.ar    
  26 C26            3.0560    -4.9599     2.0178 C.ar    
  27 C27            3.4890    -4.7783     3.3170 C.ar    
  28 C28            3.2091    -3.5927     3.9808 C.ar    
  29 C29            2.4948    -2.5923     3.3377 C.ar    
  30 C30            2.0689    -2.7766     2.0365 C.ar    
  31 O31            3.6336    -3.4118     5.2591 O.3     
  32 C32            3.3094    -2.1664     5.8802 C.3     
  33 H33            1.0039     1.9031     0.0027 H       
  34 H34           -0.5459     1.8868    -0.8726 H       
  35 H35           -0.5289     1.8773     0.9072 H       
  36 H36            0.5123    -0.3556    -0.8948 H       
  37 H37            0.5293    -0.3651     0.8851 H       
  38 H38           -3.6451    -6.1749    -0.8868 H       
  39 H39           -3.6285    -6.1851     0.8931 H       
  40 H40           -6.1094    -5.9009    -0.8622 H       
  41 H41           -5.6213    -7.3708     0.0149 H       
  42 H42           -6.0928    -5.9110     0.9177 H       
  43 H43            1.2538    -6.6770     0.4690 H       
  44 H44           -0.5178    -6.5052     0.4872 H       
  45 H45            2.4520    -6.9739    -1.6194 H       
  46 H46            2.3543    -7.7792    -3.9434 H       
  47 H47           -1.8993    -7.3669    -3.8995 H       
  48 H48           -1.7936    -6.5678    -1.5738 H       
  49 H49           -1.0320    -8.5243    -6.9733 H       
  50 H50           -1.7496    -8.8449    -5.3763 H       
  51 H51           -1.5936    -7.1714    -5.9622 H       
  52 H52            2.5672    -4.8192    -0.5622 H       
  53 H53            1.8303    -3.1990    -0.5468 H       
  54 H54            3.2733    -5.8829     1.5007 H       
  55 H55            4.0446    -5.5587     3.8156 H       
  56 H56            2.2757    -1.6684     3.8524 H       
  57 H57            1.5128    -1.9981     1.5355 H       
  58 H58            2.2264    -2.0471     5.9116 H       
  59 H59            3.7060    -2.1525     6.8954 H       
  60 H60            3.7484    -1.3495     5.3074 H       
@<TRIPOS>BOND
   1    1    2 1
   2    1   33 1
   3    1   34 1
   4    1   35 1
   5    2    3 1
   6    2   36 1
   7    2   37 1
   8    3    4 1
   9    4    5 ar
  10    4    9 ar
  11    5    6 ar
  12    6    7 ar
  13    6   14 1
  14    7    8 ar
  15    8    9 ar
  16    8   11 1
  17    9   10 1
  18   11   12 1
  19   12   13 1
  20   12   38 1
  21   12   39 1
  22   13   40 1
  23   13   41 1
  24   13   42 1
  25   14   15 1
  26   14   24 1
  27   15   16 1
  28   15   43 1
  29   15   44 1
  30   16   17 ar
  31   16   21 ar
  32   17   18 ar
  33   17   45 1
  34   18   19 ar
  35   18   46 1
  36   19   20 ar
  37   19   22 1
  38   20   21 ar
  39   20   47 1
  40   21   48 1
  41   22   23 1
  42   23   49 1
  43   23   50 1
  44   23   51 1
  45   24   25 1
  46   24   52 1
  47   24   53 1
  48   25   26 ar
  49   25   30 ar
  50   26   27 ar
  51   26   54 1
  52   27   28 ar
  53   27   55 1
  54   28   29 ar
  55   28   31 1
  56   29   30 ar
  57   29   56 1
  58   30   57 1
  59   31   32 1
  60   32   58 1
  61   32   59 1
  62   32   60 1

#	End of record

