#	Name: ASD03092783
#	Creating user name:	WinNT
#	Creation time:	15. 06. 2019 20:33

#	Modifying user name:	WinNT
#	Modification time:	15. 06. 2019 20:33

#	Program:	/corina/corina34_cracker 3.40 0067  02.08.2006

@<TRIPOS>MOLECULE
ASD03092783
  66   69    0    0    0
SMALL
NO_CHARGES


@<TRIPOS>ATOM
   1 C1            -0.9780     1.2091    -1.2545 C.3     
   2 C2            -0.7953    -0.3098    -1.2338 C.3     
   3 H3            -1.7568    -0.7944    -1.4035 H       
   4 C4             0.1861    -0.7217    -2.3344 C.3     
   5 N5             0.4170    -2.1717    -2.2603 N.3     
   6 C6             0.9503    -2.5476    -0.9429 C.3     
   7 C7            -0.0387    -2.1174     0.1437 C.3     
   8 H8            -0.9780    -2.6552     0.0145 H       
   9 C9             0.5462    -2.4346     1.5215 C.3     
  10 O10           -0.2759    -0.7111     0.0368 O.3     
  11 C11            1.2659    -2.5955    -3.2826 C.ar    
  12 C12            1.7717    -1.6733    -4.1919 C.ar    
  13 C13            2.6108    -2.0900    -5.2030 C.ar    
  14 C14            2.9526    -3.4372    -5.3132 C.ar    
  15 C15            2.4444    -4.3605    -4.3997 C.ar    
  16 C16            2.8121    -5.8173    -4.5163 C.3     
  17 N17            4.1990    -6.0070    -4.0841 N.am    
  18 C18            4.7193    -7.2483    -4.0143 C.2     
  19 O19            4.0377    -8.2106    -4.3099 O.2     
  20 C20            6.1177    -7.4396    -3.5784 C.ar    
  21 C21            6.9422    -6.3334    -3.3636 C.ar    
  22 C22            8.2464    -6.5176    -2.9565 C.ar    
  23 C23            8.7396    -7.7983    -2.7603 C.ar    
  24 F24           10.0184    -7.9732    -2.3613 F       
  25 C25            7.9249    -8.9004    -2.9717 C.ar    
  26 C26            6.6182    -8.7275    -3.3742 C.ar    
  27 C27            5.7325    -9.9259    -3.5985 C.3     
  28 C28            1.6098    -3.9389    -3.3875 C.ar    
  29 C29            3.8546    -3.8878    -6.4003 C.ar    
  30 C30            3.4491    -4.8696    -7.3095 C.ar    
  31 C31            4.3196    -5.2592    -8.3060 C.ar    
  32 C32            3.8950    -6.3164    -9.2925 C.3     
  33 N33            5.5189    -4.7184    -8.4074 N.ar    
  34 C34            5.9403    -3.7895    -7.5704 C.ar    
  35 C35            7.3209    -3.2091    -7.7378 C.3     
  36 C36            5.1319    -3.3384    -6.5478 C.ar    
  37 H37           -0.0162     1.6931    -1.0847 H       
  38 H38           -1.3724     1.5145    -2.2236 H       
  39 H39           -1.6756     1.5018    -0.4697 H       
  40 H40           -0.2326    -0.4691    -3.3085 H       
  41 H41            1.1304    -0.1952    -2.1957 H       
  42 H42            1.0895    -3.6279    -0.9013 H       
  43 H43            1.9068    -2.0503    -0.7820 H       
  44 H44            1.4846    -1.8954     1.6507 H       
  45 H45           -0.1584    -2.1281     2.2946 H       
  46 H46            0.7290    -3.5062     1.6007 H       
  47 H47            1.5067    -0.6299    -4.1062 H       
  48 H48            3.0029    -1.3735    -5.9096 H       
  49 H49            2.1505    -6.4106    -3.8852 H       
  50 H50            2.7078    -6.1364    -5.5533 H       
  51 H51            4.7428    -5.2392    -3.8482 H       
  52 H52            6.5591    -5.3353    -3.5165 H       
  53 H53            8.8851    -5.6626    -2.7904 H       
  54 H54            8.3142    -9.8959    -2.8174 H       
  55 H55            5.7201   -10.1750    -4.6595 H       
  56 H56            6.1171   -10.7732    -3.0308 H       
  57 H57            4.7198    -9.6963    -3.2673 H       
  58 H58            1.2193    -4.6529    -2.6775 H       
  59 H59            2.4689    -5.3165    -7.2324 H       
  60 H60            3.4124    -5.8428   -10.1474 H       
  61 H61            4.7707    -6.8705    -9.6306 H       
  62 H62            3.1950    -7.0006    -8.8131 H       
  63 H63            7.2728    -2.3407    -8.3948 H       
  64 H64            7.7087    -2.9075    -6.7648 H       
  65 H65            7.9799    -3.9593    -8.1749 H       
  66 H66            5.4817    -2.5747    -5.8689 H       
@<TRIPOS>BOND
   1    1    2 1
   2    1   37 1
   3    1   38 1
   4    1   39 1
   5    2    3 1
   6    2   10 1
   7    2    4 1
   8    4    5 1
   9    4   40 1
  10    4   41 1
  11    5    6 1
  12    5   11 1
  13    6    7 1
  14    6   42 1
  15    6   43 1
  16    7    8 1
  17    7    9 1
  18    7   10 1
  19    9   44 1
  20    9   45 1
  21    9   46 1
  22   11   28 ar
  23   11   12 ar
  24   12   13 ar
  25   12   47 1
  26   13   14 ar
  27   13   48 1
  28   14   15 ar
  29   14   29 1
  30   15   16 1
  31   15   28 ar
  32   16   17 1
  33   16   49 1
  34   16   50 1
  35   17   18 am
  36   17   51 1
  37   18   19 2
  38   18   20 1
  39   20   26 ar
  40   20   21 ar
  41   21   22 ar
  42   21   52 1
  43   22   23 ar
  44   22   53 1
  45   23   24 1
  46   23   25 ar
  47   25   26 ar
  48   25   54 1
  49   26   27 1
  50   27   55 1
  51   27   56 1
  52   27   57 1
  53   28   58 1
  54   29   36 ar
  55   29   30 ar
  56   30   31 ar
  57   30   59 1
  58   31   32 1
  59   31   33 ar
  60   32   60 1
  61   32   61 1
  62   32   62 1
  63   33   34 ar
  64   34   35 1
  65   34   36 ar
  66   35   63 1
  67   35   64 1
  68   35   65 1
  69   36   66 1

#	End of record

