#	Name: ASD01028499
#	Creating user name:	WinNT
#	Creation time:	15. 06. 2019 18:57

#	Modifying user name:	WinNT
#	Modification time:	15. 06. 2019 18:57

#	Program:	/corina/corina34_cracker 3.40 0067  02.08.2006

@<TRIPOS>MOLECULE
ASD01028499
  50   54    0    0    0
SMALL
NO_CHARGES


@<TRIPOS>ATOM
   1 C1            -0.0171     1.4118     0.0098 C.ar    
   2 C2             0.0021    -0.0041     0.0020 C.ar    
   3 C3             1.2105     2.1116     0.0018 C.ar    
   4 C4             2.3793     1.3714    -0.0133 C.ar    
   5 C5             2.3160    -0.0162    -0.0202 C.ar    
   6 N6             1.1704    -0.6565    -0.0123 N.ar    
   7 O7             1.2420     3.4670     0.0084 O.3     
   8 C8             2.5299     4.0861    -0.0005 C.3     
   9 C9             2.3673     5.5842     0.0086 C.2     
  10 N10            2.2907     6.3787     1.1108 N.pl3   
  11 C11            2.1481     7.6608     0.6410 C.2     
  12 N12            2.1450     7.5868    -0.6800 N.2     
  13 N13            2.2796     6.3593    -1.0417 N.2     
  14 C14            2.3284     6.1312     2.4511 C.2     
  15 C15            2.2247     7.1528     3.3436 C.2     
  16 C16            2.0765     8.4835     2.8859 C.2     
  17 C17            2.0402     8.7348     1.5502 C.2     
  18 C18           -1.2152    -0.7043     0.0100 C.ar    
  19 C19           -2.4012    -0.0065     0.0251 C.ar    
  20 C20           -2.4085     1.3917     0.0322 C.ar    
  21 C21           -1.2431     2.0938     0.0309 C.ar    
  22 O22           -3.5786    -0.6840     0.0328 O.3     
  23 C23           -4.7758     0.0961     0.0485 C.3     
  24 C24            2.2665     6.8709     4.8001 C.ar    
  25 C25            3.4254     6.3587     5.3795 C.ar    
  26 C26            3.4600     6.0979     6.7342 C.ar    
  27 C27            2.3445     6.3443     7.5177 C.ar    
  28 C28            1.1898     6.8537     6.9455 C.ar    
  29 C29            1.1486     7.1231     5.5931 C.ar    
  30 F30            1.8990     9.9999     1.0977 F       
  31 C31           -0.0206     7.1197     7.8029 C.3     
  32 F32            2.3823     6.0868     8.8434 F       
  33 H33            3.3370     1.8705    -0.0202 H       
  34 H34            3.2348    -0.5838    -0.0321 H       
  35 H35            3.0883     3.7758     0.8827 H       
  36 H36            3.0716     3.7849    -0.8972 H       
  37 H37            2.4409     5.1176     2.8065 H       
  38 H38            1.9931     9.2950     3.5936 H       
  39 H39           -1.2205    -1.7843     0.0039 H       
  40 H40           -3.3501     1.9205     0.0433 H       
  41 H41           -1.2617     3.1736     0.0364 H       
  42 H42           -4.8082     0.7297    -0.8378 H       
  43 H43           -5.6412    -0.5666     0.0533 H       
  44 H44           -4.7911     0.7202     0.9420 H       
  45 H45            4.2953     6.1656     4.7693 H       
  46 H46            4.3579     5.7009     7.1842 H       
  47 H47            0.2484     7.5204     5.1480 H       
  48 H48            0.0221     8.1395     8.1854 H       
  49 H49           -0.9237     6.9931     7.2059 H       
  50 H50           -0.0357     6.4189     8.6377 H       
@<TRIPOS>BOND
   1    1    2 ar
   2    1    3 ar
   3    1   21 ar
   4    2   18 ar
   5    2    6 ar
   6    3    4 ar
   7    3    7 1
   8    4    5 ar
   9    4   33 1
  10    5    6 ar
  11    5   34 1
  12    7    8 1
  13    8    9 1
  14    8   35 1
  15    8   36 1
  16    9   10 1
  17    9   13 2
  18   10   11 1
  19   10   14 1
  20   11   12 2
  21   11   17 1
  22   12   13 1
  23   14   15 2
  24   14   37 1
  25   15   16 1
  26   15   24 1
  27   16   17 2
  28   16   38 1
  29   17   30 1
  30   18   19 ar
  31   18   39 1
  32   19   20 ar
  33   19   22 1
  34   20   21 ar
  35   20   40 1
  36   21   41 1
  37   22   23 1
  38   23   42 1
  39   23   43 1
  40   23   44 1
  41   24   25 ar
  42   24   29 ar
  43   25   26 ar
  44   25   45 1
  45   26   27 ar
  46   26   46 1
  47   27   28 ar
  48   27   32 1
  49   28   29 ar
  50   28   31 1
  51   29   47 1
  52   31   48 1
  53   31   49 1
  54   31   50 1

#	End of record

