#	Name: ASD00170370
#	Creating user name:	WinNT
#	Creation time:	15. 06. 2019 18:32

#	Modifying user name:	WinNT
#	Modification time:	15. 06. 2019 18:32

#	Program:	/corina/corina34_cracker 3.40 0067  02.08.2006

@<TRIPOS>MOLECULE
ASD00170370
  31   32    0    0    0
SMALL
NO_CHARGES


@<TRIPOS>ATOM
   1 I1             0.0000     0.0000     0.0000 I       
   2 H2             0.0000     1.7100     0.0000 H       
   3 C3             5.5272    13.4179    12.8020 C.3     
   4 O4             5.5466    11.9890    12.7942 O.3     
   5 C5             6.1507    11.3855    11.7357 C.ar    
   6 C6             6.7174    12.1545    10.7300 C.ar    
   7 C7             7.3297    11.5405     9.6581 C.ar    
   8 C8             8.0233    12.0759     8.4314 C.3     
   9 C9             8.4723    10.8584     7.6531 C.2     
  10 S10            9.3131    10.3853     6.1775 S.3     
  11 C11            9.0880     8.6904     6.5912 C.2     
  12 N12            9.5258     7.6168     5.8327 N.pl3   
  13 N13            8.4527     8.6021     7.7107 N.2     
  14 C14            8.0979     9.7529     8.3237 C.2     
  15 C15            7.3842    10.1544     9.5764 C.ar    
  16 C16            6.8154     9.3788    10.5875 C.ar    
  17 C17            6.2053     9.9956    11.6649 C.ar    
  18 O18            5.6536     9.2435    12.6545 O.3     
  19 C19            5.7454     7.8239    12.5183 C.3     
  20 H20            6.5498    13.7951    12.7943 H       
  21 H21            5.0000    13.7789    11.9190 H       
  22 H22            5.0170    13.7694    13.6988 H       
  23 H23            6.6787    13.2324    10.7862 H       
  24 H24            7.3298    12.6693     7.8354 H       
  25 H25            8.8850    12.6783     8.7186 H       
  26 H26            9.9984     7.7719     5.0000 H       
  27 H27            9.3596     6.7100     6.1345 H       
  28 H28            6.8537     8.3010    10.5304 H       
  29 H29            5.2673     7.3453    13.3729 H       
  30 H30            5.2448     7.5138    11.6011 H       
  31 H31            6.7942     7.5300    12.4770 H       
@<TRIPOS>BOND
   1    1    2 1
   2    3    4 1
   3    3   20 1
   4    3   21 1
   5    3   22 1
   6    4    5 1
   7    5   17 ar
   8    5    6 ar
   9    6    7 ar
  10    6   23 1
  11    7   15 ar
  12    7    8 1
  13    8    9 1
  14    8   24 1
  15    8   25 1
  16    9   14 2
  17    9   10 1
  18   10   11 1
  19   11   12 1
  20   11   13 2
  21   12   26 1
  22   12   27 1
  23   13   14 1
  24   14   15 1
  25   15   16 ar
  26   16   17 ar
  27   16   28 1
  28   17   18 1
  29   18   19 1
  30   19   29 1
  31   19   30 1
  32   19   31 1

#	End of record

