#	Name: ASD04370069
#	Creating user name:	WinNT
#	Creation time:	15. 06. 2019 20:49

#	Modifying user name:	WinNT
#	Modification time:	15. 06. 2019 20:49

#	Program:	/corina/corina34_cracker 3.40 0067  02.08.2006

@<TRIPOS>MOLECULE
ASD04370069
  54   54    0    0    0
SMALL
NO_CHARGES


@<TRIPOS>ATOM
   1 C1             3.8868    -0.9724    -0.3481 C.2     
   2 C2             2.7732    -0.0276    -0.7197 C.3     
   3 C3             1.5564    -0.2995     0.1671 C.3     
   4 C4             0.3847     0.5696    -0.2942 C.3     
   5 O5             3.7470    -1.7369     0.5770 O.2     
   6 O6             5.0321    -0.9684    -1.0482 O.3     
   7 N7             1.8846     0.0217     1.5583 N.am    
   8 C8             2.1868     1.2888     1.9041 C.2     
   9 C9             2.4144     1.6409     3.3516 C.3     
  10 C10            2.7392     3.1314     3.4689 C.3     
  11 C11            2.9702     3.4889     4.9385 C.3     
  12 C12            3.2951     4.9794     5.0558 C.3     
  13 C13            3.5260     5.3370     6.5254 C.3     
  14 C14            3.8509     6.8275     6.6427 C.3     
  15 O15            2.2758     2.1456     1.0504 O.2     
  16 C16            4.0784     7.1796     8.0902 C.ar    
  17 C17            5.3482     7.0968     8.6304 C.ar    
  18 C18            5.5568     7.4198     9.9582 C.ar    
  19 C19            4.4958     7.8260    10.7457 C.ar    
  20 C20            3.2262     7.9096    10.2053 C.ar    
  21 C21            3.0183     7.5908     8.8764 C.ar    
  22 N22           -0.7438     0.4013     0.6311 N.3     
  23 C23           -1.7314     1.4748     0.4576 C.3     
  24 C24           -1.3669    -0.9189     0.4669 C.3     
  25 H25            3.1055     1.0005    -0.5754 H       
  26 H26            2.5022    -0.1785    -1.7647 H       
  27 H27            1.2802    -1.3512     0.0925 H       
  28 H28            0.6911     1.6155    -0.3071 H       
  29 H29            0.0809     0.2676    -1.2965 H       
  30 H30            5.7174    -1.5923    -0.7724 H       
  31 H31            1.8843    -0.6776     2.2305 H       
  32 H32            1.5145     1.4189     3.9253 H       
  33 H33            3.2473     1.0557     3.7413 H       
  34 H34            3.6390     3.3534     2.8952 H       
  35 H35            1.9063     3.7166     3.0792 H       
  36 H36            2.0704     3.2669     5.5122 H       
  37 H37            3.8031     2.9038     5.3282 H       
  38 H38            4.1949     5.2014     4.4821 H       
  39 H39            2.4621     5.5646     4.6661 H       
  40 H40            2.6262     5.1150     7.0991 H       
  41 H41            4.3590     4.7518     6.9151 H       
  42 H42            4.7507     7.0494     6.0690 H       
  43 H43            3.0179     7.4126     6.2530 H       
  44 H44            6.1771     6.7795     8.0151 H       
  45 H45            6.5487     7.3545    10.3804 H       
  46 H46            4.6588     8.0776    11.7833 H       
  47 H47            2.3972     8.2266    10.8207 H       
  48 H48            2.0271     7.6597     8.4532 H       
  49 H49           -2.1722     1.4057    -0.5369 H       
  50 H50           -2.5139     1.3736     1.2096 H       
  51 H51           -1.2410     2.4416     0.5713 H       
  52 H52           -0.6300    -1.6961     0.6694 H       
  53 H53           -2.1993    -1.0169     1.1638 H       
  54 H54           -1.7336    -1.0231    -0.5542 H       
@<TRIPOS>BOND
   1    1    2 1
   2    1    5 2
   3    1    6 1
   4    2    3 1
   5    2   25 1
   6    2   26 1
   7    3    4 1
   8    3    7 1
   9    3   27 1
  10    4   22 1
  11    4   28 1
  12    4   29 1
  13    6   30 1
  14    7    8 am
  15    7   31 1
  16    8    9 1
  17    8   15 2
  18    9   10 1
  19    9   32 1
  20    9   33 1
  21   10   11 1
  22   10   34 1
  23   10   35 1
  24   11   12 1
  25   11   36 1
  26   11   37 1
  27   12   13 1
  28   12   38 1
  29   12   39 1
  30   13   14 1
  31   13   40 1
  32   13   41 1
  33   14   16 1
  34   14   42 1
  35   14   43 1
  36   16   17 ar
  37   16   21 ar
  38   17   18 ar
  39   17   44 1
  40   18   19 ar
  41   18   45 1
  42   19   20 ar
  43   19   46 1
  44   20   21 ar
  45   20   47 1
  46   21   48 1
  47   22   23 1
  48   22   24 1
  49   23   49 1
  50   23   50 1
  51   23   51 1
  52   24   52 1
  53   24   53 1
  54   24   54 1

#	End of record

