#	Name: ASD07300832
#	Creating user name:	WinNT
#	Creation time:	15. 06. 2019 21:10

#	Modifying user name:	WinNT
#	Modification time:	15. 06. 2019 21:10

#	Program:	/corina/corina34_cracker 3.40 0067  02.08.2006

@<TRIPOS>MOLECULE
ASD07300832
  49   53    0    0    0
SMALL
NO_CHARGES


@<TRIPOS>ATOM
   1 C1            -0.0173     1.4131    -0.0101 C.2     
   2 C2             0.0021    -0.0041     0.0020 C.2     
   3 N3             1.1774     2.0867    -0.0173 N.pl3   
   4 N4             1.1570    -0.6391     0.0061 N.2     
   5 C5             2.3155     0.0275    -0.0010 C.2     
   6 C6             2.3479     1.3754    -0.0130 C.2     
   7 N7            -0.9991     2.3006    -0.0112 N.2     
   8 C8            -0.4895     3.5281    -0.0247 C.2     
   9 C9             0.8861     3.4241    -0.0279 C.2     
  10 N10           -1.1861    -0.7177     0.0100 N.pl3   
  11 C11           -1.1896    -2.1845    -0.1073 C.3     
  12 C12           -2.0523    -2.7579     1.0227 C.3     
  13 O13           -3.3301    -2.1170     1.0109 O.3     
  14 C14           -3.2811    -0.7091     1.2547 C.3     
  15 C15           -2.4811    -0.0313     0.1422 C.3     
  16 C16           -1.2783     4.8121    -0.0308 C.3     
  17 C17            2.9635     4.5208     0.8126 C.ar    
  18 C18            1.8552     4.5383    -0.0380 C.ar    
  19 C19            1.6764     5.6277    -0.9013 C.ar    
  20 C20            2.6088     6.6456    -0.8755 C.ar    
  21 C21            3.6896     6.5571     0.0018 C.ar    
  22 N22            3.8297     5.5104     0.8066 N.ar    
  23 C23            4.6950     7.6455     0.0357 C.ar    
  24 C24            5.7799     7.5684     0.9084 C.ar    
  25 C25            6.7131     8.5839     0.9365 C.ar    
  26 C26            6.5735     9.6795     0.0996 C.ar    
  27 C27            5.4969     9.7606    -0.7691 C.ar    
  28 C28            4.5622     8.7469    -0.8090 C.ar    
  29 F29            7.4898    10.6718     0.1309 F       
  30 H30            3.2439    -0.5244     0.0026 H       
  31 H31            3.2956     1.8934    -0.0188 H       
  32 H32           -1.6073    -2.4747    -1.0714 H       
  33 H33           -0.1709    -2.5622    -0.0194 H       
  34 H34           -2.1813    -3.8300     0.8742 H       
  35 H35           -1.5638    -2.5784     1.9805 H       
  36 H36           -4.2942    -0.3073     1.2730 H       
  37 H37           -2.7971    -0.5223     2.2133 H       
  38 H38           -2.3172     1.0161     0.3953 H       
  39 H39           -3.0310    -0.1010    -0.7963 H       
  40 H40           -1.4619     5.1306     0.9953 H       
  41 H41           -0.7135     5.5831    -0.5550 H       
  42 H42           -2.2301     4.6514    -0.5372 H       
  43 H43            3.1081     3.6880     1.4849 H       
  44 H44            0.8299     5.6698    -1.5707 H       
  45 H45            2.5028     7.5002    -1.5273 H       
  46 H46            5.8891     6.7153     1.5616 H       
  47 H47            7.5537     8.5251     1.6121 H       
  48 H48            5.3920    10.6166    -1.4193 H       
  49 H49            3.7260     8.8087    -1.4897 H       
@<TRIPOS>BOND
   1    1    2 1
   2    1    3 1
   3    1    7 2
   4    2    4 2
   5    2   10 1
   6    3    6 1
   7    3    9 1
   8    4    5 1
   9    5    6 2
  10    5   30 1
  11    6   31 1
  12    7    8 1
  13    8    9 2
  14    8   16 1
  15    9   18 1
  16   10   11 1
  17   10   15 1
  18   11   12 1
  19   11   32 1
  20   11   33 1
  21   12   13 1
  22   12   34 1
  23   12   35 1
  24   13   14 1
  25   14   15 1
  26   14   36 1
  27   14   37 1
  28   15   38 1
  29   15   39 1
  30   16   40 1
  31   16   41 1
  32   16   42 1
  33   17   18 ar
  34   17   22 ar
  35   17   43 1
  36   18   19 ar
  37   19   20 ar
  38   19   44 1
  39   20   21 ar
  40   20   45 1
  41   21   22 ar
  42   21   23 1
  43   23   24 ar
  44   23   28 ar
  45   24   25 ar
  46   24   46 1
  47   25   26 ar
  48   25   47 1
  49   26   27 ar
  50   26   29 1
  51   27   28 ar
  52   27   48 1
  53   28   49 1

#	End of record

