#	Name: ASD06170040
#	Creating user name:	WinNT
#	Creation time:	15. 06. 2019 21:05

#	Modifying user name:	WinNT
#	Modification time:	15. 06. 2019 21:05

#	Program:	/corina/corina34_cracker 3.40 0067  02.08.2006

@<TRIPOS>MOLECULE
ASD06170040
  63   67    0    0    0
SMALL
NO_CHARGES


@<TRIPOS>ATOM
   1 N1             0.1113    -2.1686     0.0207 N.pl3   
   2 N2             0.0327    -0.7734    -0.0199 N.am    
   3 C3             1.2854    -0.2731    -0.0465 C.2     
   4 C4             2.1974    -1.4277    -0.0209 C.2     
   5 C5             1.4011    -2.5557     0.0200 C.2     
   6 C6             3.6645    -1.3885    -0.0362 C.2     
   7 O7             4.3011    -2.4253    -0.0119 O.2     
   8 N8             4.3065    -0.2042    -0.0773 N.am    
   9 O9             1.5994     0.9020    -0.0846 O.2     
  10 C10            1.8930    -3.9796     0.0580 C.3     
  11 C11           -1.0388    -3.0750     0.0638 C.3     
  12 C12            5.6971    -0.1609     0.0239 C.ar    
  13 C13            6.3605     1.0509    -0.1329 C.ar    
  14 C14            7.7394     1.0826    -0.0307 C.ar    
  15 C15            8.4132    -0.1089     0.2270 C.ar    
  16 C16            7.6856    -1.2793     0.3716 C.ar    
  17 N17            6.3699    -1.2727     0.2733 N.ar    
  18 O18            9.7684    -0.1235     0.3349 O.3     
  19 N19           11.4538     1.8136     3.5626 N.ar    
  20 C20           10.1499     1.6965     3.4703 C.ar    
  21 C21            9.5465     1.0505     2.3987 C.ar    
  22 C22           10.3296     0.5121     1.3929 C.ar    
  23 C23           11.7322     0.6445     1.5026 C.ar    
  24 C24           12.5910     0.1251     0.5225 C.ar    
  25 C25           13.9410     0.2719     0.6607 C.ar    
  26 C26           14.4778     0.9367     1.7725 C.ar    
  27 C27           13.6647     1.4512     2.7409 C.ar    
  28 C28           12.2712     1.3165     2.6267 C.ar    
  29 O29           15.8251     1.0702     1.8877 O.3     
  30 C30           16.3127     1.7570     3.0421 C.3     
  31 O31           14.7737    -0.2319    -0.2890 O.3     
  32 C32           14.1658    -0.8987    -1.3971 C.3     
  33 C33           -1.1475    -0.0218    -0.0315 C.ar    
  34 C34           -1.8022     0.2286    -1.2319 C.ar    
  35 C35           -2.9677     0.9708    -1.2392 C.ar    
  36 C36           -3.4821     1.4644    -0.0541 C.ar    
  37 C37           -2.8330     1.2169     1.1412 C.ar    
  38 C38           -1.6704     0.4707     1.1565 C.ar    
  39 Cl39          -1.1562    -0.3899    -2.7198 Cl      
  40 H40            3.8017     0.6180    -0.1771 H       
  41 H41            2.0018    -4.3537    -0.9600 H       
  42 H42            2.8576    -4.0174     0.5640 H       
  43 H43            1.1753    -4.5977     0.5974 H       
  44 H44           -1.3384    -3.3305    -0.9526 H       
  45 H45           -0.7657    -3.9832     0.6012 H       
  46 H46           -1.8680    -2.5858     0.5749 H       
  47 H47            5.8060     1.9560    -0.3323 H       
  48 H48            8.2811     2.0095    -0.1482 H       
  49 H49            8.2013    -2.2070     0.5711 H       
  50 H50            9.5289     2.1132     4.2494 H       
  51 H51            8.4706     0.9692     2.3506 H       
  52 H52           12.1861    -0.3887    -0.3369 H       
  53 H53           14.0917     1.9609     3.5920 H       
  54 H54           15.9155     2.7720     3.0557 H       
  55 H55           15.9927     1.2296     3.9407 H       
  56 H56           17.4016     1.7933     3.0104 H       
  57 H57           14.9402    -1.2513    -2.0783 H       
  58 H58           13.5853    -1.7478    -1.0363 H       
  59 H59           13.5082    -0.2057    -1.9219 H       
  60 H60           -3.4772     1.1660    -2.1713 H       
  61 H61           -4.3929     2.0449    -0.0624 H       
  62 H62           -3.2374     1.6042     2.0647 H       
  63 H63           -1.1663     0.2744     2.0913 H       
@<TRIPOS>BOND
   1    1    2 1
   2    1    5 1
   3    1   11 1
   4    2    3 am
   5    2   33 1
   6    3    4 1
   7    3    9 2
   8    4    5 2
   9    4    6 1
  10    5   10 1
  11    6    7 2
  12    6    8 am
  13    8   12 1
  14    8   40 1
  15   10   41 1
  16   10   42 1
  17   10   43 1
  18   11   44 1
  19   11   45 1
  20   11   46 1
  21   12   13 ar
  22   12   17 ar
  23   13   14 ar
  24   13   47 1
  25   14   15 ar
  26   14   48 1
  27   15   16 ar
  28   15   18 1
  29   16   17 ar
  30   16   49 1
  31   18   22 1
  32   19   20 ar
  33   19   28 ar
  34   20   21 ar
  35   20   50 1
  36   21   22 ar
  37   21   51 1
  38   22   23 ar
  39   23   24 ar
  40   23   28 ar
  41   24   25 ar
  42   24   52 1
  43   25   26 ar
  44   25   31 1
  45   26   27 ar
  46   26   29 1
  47   27   28 ar
  48   27   53 1
  49   29   30 1
  50   30   54 1
  51   30   55 1
  52   30   56 1
  53   31   32 1
  54   32   57 1
  55   32   58 1
  56   32   59 1
  57   33   34 ar
  58   33   38 ar
  59   34   35 ar
  60   34   39 1
  61   35   36 ar
  62   35   60 1
  63   36   37 ar
  64   36   61 1
  65   37   38 ar
  66   37   62 1
  67   38   63 1

#	End of record

