#	Name: ASD00310413
#	Creating user name:	WinNT
#	Creation time:	15. 06. 2019 18:34

#	Modifying user name:	WinNT
#	Modification time:	15. 06. 2019 18:34

#	Program:	/corina/corina34_cracker 3.40 0067  02.08.2006

@<TRIPOS>MOLECULE
ASD00310413
  53   55    0    0    0
SMALL
NO_CHARGES


@<TRIPOS>ATOM
   1 N1            -0.0163     1.3507     0.0095 N.pl3   
   2 C2             0.0021    -0.0041     0.0020 C.2     
   3 C3             1.2911    -0.4482    -0.0127 C.2     
   4 C4             2.1469     0.7534    -0.0144 C.ar    
   5 C5             3.5227     0.9571    -0.0264 C.ar    
   6 C6             4.0242     2.2523    -0.0243 C.ar    
   7 C7             3.1475     3.3426    -0.0096 C.ar    
   8 C8             1.7858     3.1434     0.0024 C.ar    
   9 C9             1.2695     1.8503    -0.0001 C.ar    
  10 C10            1.7393    -1.8471    -0.0245 C.2     
  11 O11            2.9284    -2.1049    -0.0368 O.2     
  12 N12            0.8334    -2.8450    -0.0217 N.am    
  13 S13            1.3386    -4.4220    -0.0350 S.o2    
  14 O14            0.1341    -5.1757    -0.0539 O.2     
  15 O15            2.2598    -4.4857    -1.1151 O.2     
  16 C16            2.1982    -4.6352     1.5481 C.3     
  17 C17            5.4903     2.4798    -0.0370 C.ar    
  18 C18            6.0529     3.3573    -0.9609 C.ar    
  19 C19            7.4222     3.5653    -0.9678 C.ar    
  20 C20            8.2303     2.8998    -0.0559 C.ar    
  21 C21            7.6725     2.0290     0.8610 C.ar    
  22 C22            6.3078     1.8205     0.8790 C.ar    
  23 O23            7.9749     4.4207    -1.8677 O.3     
  24 C24            7.0842     5.0708    -2.7766 C.3     
  25 C25           10.3726     2.2814     1.0290 C.3     
  26 C26            9.7200     3.1273    -0.0662 C.3     
  27 C27           10.2880     2.7242    -1.4284 C.3     
  28 C28           10.0118     4.6071     0.1905 C.3     
  29 O29           11.7852     2.4971     1.0193 O.3     
  30 Cl30           3.7820     4.9585    -0.0058 Cl      
  31 H31           -0.8205     1.8930     0.0164 H       
  32 H32           -0.8729    -0.6371     0.0070 H       
  33 H33            4.1968     0.1134    -0.0370 H       
  34 H34            1.1168     3.9912     0.0137 H       
  35 H35           -0.1145    -2.6394    -0.0119 H       
  36 H36            1.5066    -4.4364     2.3668 H       
  37 H37            2.5687    -5.6574     1.6256 H       
  38 H38            3.0359    -3.9400     1.6033 H       
  39 H39            5.4232     3.8737    -1.6702 H       
  40 H40            8.3054     1.5137     1.5684 H       
  41 H41            5.8744     1.1428     1.5996 H       
  42 H42            6.5590     4.3216    -3.3690 H       
  43 H43            6.3610     5.6628    -2.2157 H       
  44 H44            7.6531     5.7238    -3.4384 H       
  45 H45            9.9679     2.5685     1.9995 H       
  46 H46           10.1647     1.2271     0.8462 H       
  47 H47            9.8231     3.3268    -2.2087 H       
  48 H48           11.3655     2.8887    -1.4359 H       
  49 H49           10.0802     1.6700    -1.6112 H       
  50 H50            9.6071     4.8943     1.1610 H       
  51 H51           11.0892     4.7716     0.1830 H       
  52 H52            9.5468     5.2097    -0.5898 H       
  53 H53           12.2649     1.9913     1.6895 H       
@<TRIPOS>BOND
   1    1    2 1
   2    1    9 1
   3    1   31 1
   4    2    3 2
   5    2   32 1
   6    3    4 1
   7    3   10 1
   8    4    5 ar
   9    4    9 ar
  10    5    6 ar
  11    5   33 1
  12    6    7 ar
  13    6   17 1
  14    7    8 ar
  15    7   30 1
  16    8    9 ar
  17    8   34 1
  18   10   11 2
  19   10   12 am
  20   12   13 am
  21   12   35 1
  22   13   14 2
  23   13   15 2
  24   13   16 1
  25   16   36 1
  26   16   37 1
  27   16   38 1
  28   17   18 ar
  29   17   22 ar
  30   18   19 ar
  31   18   39 1
  32   19   20 ar
  33   19   23 1
  34   20   21 ar
  35   20   26 1
  36   21   22 ar
  37   21   40 1
  38   22   41 1
  39   23   24 1
  40   24   42 1
  41   24   43 1
  42   24   44 1
  43   25   26 1
  44   25   29 1
  45   25   45 1
  46   25   46 1
  47   26   27 1
  48   26   28 1
  49   27   47 1
  50   27   48 1
  51   27   49 1
  52   28   50 1
  53   28   51 1
  54   28   52 1
  55   29   53 1

#	End of record

