#	Name: ASD01028232
#	Creating user name:	WinNT
#	Creation time:	15. 06. 2019 18:56

#	Modifying user name:	WinNT
#	Modification time:	15. 06. 2019 18:56

#	Program:	/corina/corina34_cracker 3.40 0067  02.08.2006

@<TRIPOS>MOLECULE
ASD01028232
  48   52    0    0    0
SMALL
NO_CHARGES


@<TRIPOS>ATOM
   1 C1            -0.0166     1.3719     0.0096 C.ar    
   2 C2             0.0021    -0.0041     0.0020 C.ar    
   3 C3             1.1750     2.1035     0.0021 C.ar    
   4 C4             2.3797     1.4715    -0.0128 C.ar    
   5 C5             2.4326     0.0695    -0.0208 C.ar    
   6 C6             1.2322    -0.6815    -0.0134 C.ar    
   7 C7             3.6676    -0.6170    -0.0367 C.ar    
   8 C8             3.6411    -2.0003    -0.0444 C.ar    
   9 C9             2.4221    -2.6660    -0.0364 C.ar    
  10 N10            1.2804    -2.0188    -0.0211 N.ar    
  11 O11            4.8427     0.0593    -0.0447 O.3     
  12 C12            6.0400    -0.7207    -0.0607 C.3     
  13 C13            7.2364     0.1957    -0.0676 C.2     
  14 N14            8.5513    -0.1847    -0.0827 N.pl3   
  15 C15            9.3008     0.9631    -0.0839 C.2     
  16 N16            8.4694     1.9956    -0.0701 N.2     
  17 C17            7.2121     1.5463    -0.0660 C.2     
  18 C18            9.1555    -1.4069    -0.0948 C.2     
  19 C19           10.5126    -1.5061    -0.1084 C.2     
  20 C20           11.3079    -0.3367    -0.1095 C.2     
  21 C21           10.7088     0.8818    -0.0983 C.2     
  22 O22           -1.2065     2.0271     0.0188 O.3     
  23 C23           -1.1606     3.4553     0.0263 C.3     
  24 C24           11.1584    -2.8422    -0.1216 C.ar    
  25 C25           11.9108    -3.2443    -1.2233 C.ar    
  26 C26           12.5096    -4.4878    -1.2300 C.ar    
  27 C27           12.3640    -5.3343    -0.1457 C.ar    
  28 C28           11.6179    -4.9403     0.9504 C.ar    
  29 C29           11.0194    -3.6968     0.9702 C.ar    
  30 H30           -0.9239    -0.5598     0.0082 H       
  31 H31            1.1387     3.1829     0.0079 H       
  32 H32            3.2932     2.0476    -0.0188 H       
  33 H33            4.5646    -2.5602    -0.0569 H       
  34 H34            2.4134    -3.7460    -0.0425 H       
  35 H35            6.0728    -1.3543     0.8256 H       
  36 H36            6.0552    -1.3447    -0.9543 H       
  37 H37            6.3237     2.1604    -0.0557 H       
  38 H38            8.5525    -2.3029    -0.0933 H       
  39 H39           12.3853    -0.4123    -0.1193 H       
  40 H40           11.3059     1.7817    -0.0993 H       
  41 H41           -0.6396     3.8068    -0.8642 H       
  42 H42           -2.1761     3.8514     0.0333 H       
  43 H43           -0.6312     3.7971     0.9157 H       
  44 H44           12.0248    -2.5844    -2.0705 H       
  45 H45           13.0927    -4.8007    -2.0836 H       
  46 H46           12.8343    -6.3064    -0.1551 H       
  47 H47           11.5071    -5.6053     1.7942 H       
  48 H48           10.4371    -3.3902     1.8265 H       
@<TRIPOS>BOND
   1    1    2 ar
   2    1    3 ar
   3    1   22 1
   4    2    6 ar
   5    2   30 1
   6    3    4 ar
   7    3   31 1
   8    4    5 ar
   9    4   32 1
  10    5    6 ar
  11    5    7 ar
  12    6   10 ar
  13    7    8 ar
  14    7   11 1
  15    8    9 ar
  16    8   33 1
  17    9   10 ar
  18    9   34 1
  19   11   12 1
  20   12   13 1
  21   12   35 1
  22   12   36 1
  23   13   14 1
  24   13   17 2
  25   14   15 1
  26   14   18 1
  27   15   16 2
  28   15   21 1
  29   16   17 1
  30   17   37 1
  31   18   19 2
  32   18   38 1
  33   19   20 1
  34   19   24 1
  35   20   21 2
  36   20   39 1
  37   21   40 1
  38   22   23 1
  39   23   41 1
  40   23   42 1
  41   23   43 1
  42   24   25 ar
  43   24   29 ar
  44   25   26 ar
  45   25   44 1
  46   26   27 ar
  47   26   45 1
  48   27   28 ar
  49   27   46 1
  50   28   29 ar
  51   28   47 1
  52   29   48 1

#	End of record

