#	Name: ASD04590021
#	Creating user name:	WinNT
#	Creation time:	15. 06. 2019 20:50

#	Modifying user name:	WinNT
#	Modification time:	15. 06. 2019 20:50

#	Program:	/corina/corina34_cracker 3.40 0067  02.08.2006

@<TRIPOS>MOLECULE
ASD04590021
  59   62    0    0    0
SMALL
NO_CHARGES


@<TRIPOS>ATOM
   1 C1            -0.0187     1.5280     0.0104 C.3     
   2 C2             0.0021    -0.0041     0.0020 C.3     
   3 C3             0.7956    -0.4722    -1.2199 C.3     
   4 C4             2.1924     0.0952    -1.1643 C.2     
   5 C5             2.4351     1.2893    -0.5833 C.2     
   6 C6             1.3970     2.0369    -0.0003 C.2     
   7 N7             3.2146    -0.6300    -1.7153 N.pl3   
   8 C8             4.5127    -0.3810    -1.3670 C.2     
   9 C9             4.8540     0.7906    -0.8031 C.2     
  10 C10            3.8313     1.8580    -0.5462 C.3     
  11 O11            1.6476     3.1138     0.5036 O.2     
  12 C12            3.9577     2.9281    -1.5997 C.ar    
  13 C13            4.2456     4.2293    -1.2322 C.ar    
  14 C14            4.3614     5.2109    -2.1986 C.ar    
  15 C15            4.1898     4.8913    -3.5325 C.ar    
  16 C16            3.9028     3.5900    -3.9001 C.ar    
  17 C17            3.7913     2.6075    -2.9341 C.ar    
  18 C18            5.5684    -1.4271    -1.6163 C.3     
  19 C19            6.2028     1.0216    -0.4453 C.2     
  20 O20            6.5594     2.1932     0.1216 O.3     
  21 O21            7.0417     0.1639    -0.6486 O.2     
  22 C22            7.9385     2.3583     0.4572 C.3     
  23 C23            0.6734    -0.5161     1.2780 C.3     
  24 C24           -1.4297    -0.5371    -0.0798 C.3     
  25 C25            8.1460     3.7171     1.0750 C.ar    
  26 C26            8.0324     3.8790     2.4431 C.ar    
  27 C27            8.4554     4.8005     0.2742 C.ar    
  28 C28            8.6457     6.0469     0.8408 C.ar    
  29 C29            8.5261     6.2100     2.2083 C.ar    
  30 C30            8.2226     5.1254     3.0098 C.ar    
  31 N31            4.3129     5.9426    -4.5672 N.pl3   
  32 O32            4.5654     7.0893    -4.2433 O.2     
  33 O33            4.1617     5.6610    -5.7425 O.2     
  34 H34           -0.5434     1.8906    -0.8735 H       
  35 H35           -0.5264     1.8810     0.9081 H       
  36 H36            0.8461    -1.5610    -1.2245 H       
  37 H37            0.3002    -0.1284    -2.1279 H       
  38 H38            3.0157    -1.3273    -2.3596 H       
  39 H39            4.0125     2.2988     0.4341 H       
  40 H40            4.3797     4.4789    -0.1901 H       
  41 H41            4.5857     6.2276    -1.9114 H       
  42 H42            3.7684     3.3404    -4.9422 H       
  43 H43            3.5670     1.5908    -3.2212 H       
  44 H44            5.1104    -2.3032    -2.0755 H       
  45 H45            6.3296    -1.0232    -2.2838 H       
  46 H46            6.0287    -1.7116    -0.6701 H       
  47 H47            8.2343     1.5869     1.1683 H       
  48 H48            8.5447     2.2728    -0.4446 H       
  49 H49            0.1162    -0.1665     2.1471 H       
  50 H50            0.6868    -1.6060     1.2693 H       
  51 H51            1.6955    -0.1406     1.3266 H       
  52 H52           -1.8999    -0.1766    -0.9947 H       
  53 H53           -1.4119    -1.6270    -0.0857 H       
  54 H54           -1.9974    -0.1877     0.7826 H       
  55 H55            7.7946     3.0317     3.0693 H       
  56 H56            8.5489     4.6731    -0.7942 H       
  57 H57            8.8882     6.8932     0.2152 H       
  58 H58            8.6752     7.1837     2.6511 H       
  59 H59            8.1292     5.2528     4.0782 H       
@<TRIPOS>BOND
   1    1    2 1
   2    1    6 1
   3    1   34 1
   4    1   35 1
   5    2    3 1
   6    2   23 1
   7    2   24 1
   8    3    4 1
   9    3   36 1
  10    3   37 1
  11    4    5 2
  12    4    7 1
  13    5    6 1
  14    5   10 1
  15    6   11 2
  16    7    8 1
  17    7   38 1
  18    8    9 2
  19    8   18 1
  20    9   10 1
  21    9   19 1
  22   10   12 1
  23   10   39 1
  24   12   13 ar
  25   12   17 ar
  26   13   14 ar
  27   13   40 1
  28   14   15 ar
  29   14   41 1
  30   15   16 ar
  31   15   31 1
  32   16   17 ar
  33   16   42 1
  34   17   43 1
  35   18   44 1
  36   18   45 1
  37   18   46 1
  38   19   20 1
  39   19   21 2
  40   20   22 1
  41   22   25 1
  42   22   47 1
  43   22   48 1
  44   23   49 1
  45   23   50 1
  46   23   51 1
  47   24   52 1
  48   24   53 1
  49   24   54 1
  50   25   26 ar
  51   25   27 ar
  52   26   30 ar
  53   26   55 1
  54   27   28 ar
  55   27   56 1
  56   28   29 ar
  57   28   57 1
  58   29   30 ar
  59   29   58 1
  60   30   59 1
  61   31   32 2
  62   31   33 2

#	End of record

