#	Name: ASD02038098
#	Creating user name:	WinNT
#	Creation time:	15. 06. 2019 20:16

#	Modifying user name:	WinNT
#	Modification time:	15. 06. 2019 20:16

#	Program:	/corina/corina34_cracker 3.40 0067  02.08.2006

@<TRIPOS>MOLECULE
ASD02038098
  51   52    0    0    0
SMALL
NO_CHARGES


@<TRIPOS>ATOM
   1 C1             0.5154     1.9198    -0.7649 C.ar    
   2 C2             0.4774     0.5435    -0.6221 C.ar    
   3 C3             1.7320     2.5711    -0.9005 C.ar    
   4 C4             2.9096     1.8455    -0.8936 C.ar    
   5 C5             2.8718     0.4650    -0.7503 C.ar    
   6 C6             1.6515    -0.1843    -0.6143 C.ar    
   7 N7             4.0607    -0.2707    -0.7435 N.pl3   
   8 N8             5.4042    -3.7434    -0.4658 N.3     
   9 C9             5.4452    -2.2829    -0.6174 C.3     
  10 C10            4.0198    -1.7273    -0.5923 C.3     
  11 C11            6.7581    -4.3130    -0.4854 C.3     
  12 C12            6.6747    -5.8323    -0.3253 C.3     
  13 C13            8.0849    -6.4254    -0.3458 C.3     
  14 O14            6.0438    -6.1464     0.9178 O.3     
  15 O15            8.0023    -7.8517    -0.3135 O.3     
  16 C16            9.1760    -8.5386    -0.3264 C.ar    
  17 C17            9.1678    -9.9253    -0.2967 C.ar    
  18 C18           10.3593   -10.6237    -0.3103 C.ar    
  19 C19           11.5655    -9.9372    -0.3536 C.ar    
  20 C20           11.5728    -8.5489    -0.3833 C.ar    
  21 C21           10.3803    -7.8523    -0.3751 C.ar    
  22 F22           -0.6346     2.6287    -0.7778 F       
  23 F23            1.7671     3.9145    -1.0398 F       
  24 N24           12.7732   -10.6440    -0.3669 N.am    
  25 S25           13.7072   -10.7133     0.9989 S.o2    
  26 O26           14.8195   -11.5134     0.6226 O.2     
  27 O27           13.8769    -9.3539     1.3766 O.2     
  28 C28           12.6755   -11.5862     2.2089 C.3     
  29 H29           -0.4711     0.0381    -0.5163 H       
  30 H30            3.8575     2.3522    -0.9999 H       
  31 H31            1.6206    -1.2580    -0.5024 H       
  32 H32            4.9126     0.1833    -0.8388 H       
  33 H33            4.9136    -4.0060     0.3760 H       
  34 H34            6.0189    -1.8485     0.2013 H       
  35 H35            5.9173    -2.0292    -1.5666 H       
  36 H36            3.5477    -1.9810     0.3569 H       
  37 H37            3.4461    -2.1616    -1.4110 H       
  38 H38            7.2394    -4.0734    -1.4336 H       
  39 H39            7.3410    -3.8927     0.3342 H       
  40 H40            6.0919    -6.2525    -1.1450 H       
  41 H41            8.5979    -6.1117    -1.2549 H       
  42 H42            8.6396    -6.0739     0.5241 H       
  43 H43            6.5091    -5.8029     1.6928 H       
  44 H44            8.2296   -10.4590    -0.2626 H       
  45 H45           10.3528   -11.7034    -0.2868 H       
  46 H46           12.5105    -8.0142    -0.4170 H       
  47 H47           10.3857    -6.7725    -0.3985 H       
  48 H48           13.0633   -11.0934    -1.1761 H       
  49 H49           12.3593   -12.5431     1.7937 H       
  50 H50           13.2494   -11.7571     3.1197 H       
  51 H51           11.7977   -10.9828     2.4405 H       
@<TRIPOS>BOND
   1    1    2 ar
   2    1    3 ar
   3    1   22 1
   4    2    6 ar
   5    2   29 1
   6    3    4 ar
   7    3   23 1
   8    4    5 ar
   9    4   30 1
  10    5    6 ar
  11    5    7 1
  12    6   31 1
  13    7   10 1
  14    7   32 1
  15    8    9 1
  16    8   11 1
  17    8   33 1
  18    9   10 1
  19    9   34 1
  20    9   35 1
  21   10   36 1
  22   10   37 1
  23   11   12 1
  24   11   38 1
  25   11   39 1
  26   12   14 1
  27   12   13 1
  28   12   40 1
  29   13   15 1
  30   13   41 1
  31   13   42 1
  32   14   43 1
  33   15   16 1
  34   16   17 ar
  35   16   21 ar
  36   17   18 ar
  37   17   44 1
  38   18   19 ar
  39   18   45 1
  40   19   20 ar
  41   19   24 1
  42   20   21 ar
  43   20   46 1
  44   21   47 1
  45   24   25 am
  46   24   48 1
  47   25   26 2
  48   25   27 2
  49   25   28 1
  50   28   49 1
  51   28   50 1
  52   28   51 1

#	End of record

