#	Name: ASD00460026
#	Creating user name:	WinNT
#	Creation time:	15. 06. 2019 18:36

#	Modifying user name:	WinNT
#	Modification time:	15. 06. 2019 18:36

#	Program:	/corina/corina34_cracker 3.40 0067  02.08.2006

@<TRIPOS>MOLECULE
ASD00460026
  71   75    0    0    0
SMALL
NO_CHARGES


@<TRIPOS>ATOM
   1 O1             1.0852    -0.3261     1.6600 O.2     
   2 C2             1.0284     0.8848     1.7530 C.2     
   3 N3             2.0397     1.6445     1.2876 N.am    
   4 C4             3.2073     1.0112     0.6696 C.3     
   5 C5             2.9691     0.8595    -0.8341 C.3     
   6 C6             4.1885     0.1981    -1.4795 C.3     
   7 C7             4.3340    -1.2072    -0.9551 C.ar    
   8 C8             3.2597    -2.0760    -0.9987 C.ar    
   9 C9             3.3932    -3.3650    -0.5177 C.ar    
  10 C10            4.6012    -3.7855     0.0066 C.ar    
  11 C11            5.6758    -2.9170     0.0494 C.ar    
  12 C12            5.5435    -1.6293    -0.4356 C.ar    
  13 C13            4.0066     0.1599    -2.9749 C.ar    
  14 C14            5.0011     0.6428    -3.8048 C.ar    
  15 C15            4.8342     0.6078    -5.1765 C.ar    
  16 C16            3.6730     0.0895    -5.7185 C.ar    
  17 C17            2.6788    -0.3942    -4.8888 C.ar    
  18 C18            2.8475    -0.3632    -3.5171 C.ar    
  19 C19            1.9714     3.1037     1.3996 C.3     
  20 C20            2.5923     3.5428     2.7272 C.3     
  21 N21            2.5237     5.0059     2.8396 N.3     
  22 C22            2.8903     5.4482     4.1928 C.3     
  23 C23            2.8636     6.9779     4.2487 C.3     
  24 O24            1.5677     7.4416     3.8601 O.3     
  25 C25            1.1788     7.0297     2.5469 C.3     
  26 C26            1.1885     5.5005     2.4738 C.3     
  27 N27           -0.0482     1.4677     2.3165 N.am    
  28 C28           -1.0994     0.6802     2.7939 C.2     
  29 N29           -1.0616    -0.6242     2.7058 N.2     
  30 S30           -2.5139    -1.1759     3.3946 S.3     
  31 C31           -3.0989     0.4010     3.7678 C.2     
  32 N32           -2.1568     1.2242     3.3514 N.2     
  33 C33           -4.3787     0.7546     4.4195 C.ar    
  34 C34           -5.2683    -0.2481     4.8067 C.ar    
  35 C35           -6.4603     0.0883     5.4146 C.ar    
  36 C36           -6.7743     1.4166     5.6405 C.ar    
  37 C37           -5.8965     2.4156     5.2590 C.ar    
  38 C38           -4.6989     2.0921     4.6550 C.ar    
  39 H39            4.0881     1.6311     0.8372 H       
  40 H40            3.3650     0.0283     1.1135 H       
  41 H41            2.0883     0.2397    -1.0017 H       
  42 H42            2.8114     1.8425    -1.2780 H       
  43 H43            5.0835     0.7710    -1.2368 H       
  44 H44            2.3159    -1.7475    -1.4083 H       
  45 H45            2.5536    -4.0435    -0.5511 H       
  46 H46            4.7053    -4.7923     0.3831 H       
  47 H47            6.6195    -3.2453     0.4593 H       
  48 H48            6.3831    -0.9507    -0.4022 H       
  49 H49            5.9084     1.0478    -3.3813 H       
  50 H50            5.6109     0.9858    -5.8248 H       
  51 H51            3.5423     0.0629    -6.7903 H       
  52 H52            1.7714    -0.7988    -5.3122 H       
  53 H53            2.0708    -0.7411    -2.8688 H       
  54 H54            2.5198     3.5575     0.5742 H       
  55 H55            0.9297     3.4225     1.3626 H       
  56 H56            2.0438     3.0890     3.5526 H       
  57 H57            3.6339     3.2240     2.7642 H       
  58 H58            2.1781     5.0452     4.9129 H       
  59 H59            3.8923     5.0926     4.4330 H       
  60 H60            3.0790     7.3088     5.2647 H       
  61 H61            3.6135     7.3801     3.5676 H       
  62 H62            0.1757     7.3980     2.3321 H       
  63 H63            1.8797     7.4334     1.8163 H       
  64 H64            0.9482     5.1831     1.4591 H       
  65 H65            0.4491     5.0983     3.1663 H       
  66 H66           -0.0935     2.4338     2.3907 H       
  67 H67           -5.0245    -1.2854     4.6305 H       
  68 H68           -7.1499    -0.6869     5.7144 H       
  69 H69           -7.7088     1.6749     6.1163 H       
  70 H70           -6.1475     3.4507     5.4378 H       
  71 H71           -4.0143     2.8728     4.3579 H       
@<TRIPOS>BOND
   1    1    2 2
   2    2    3 am
   3    2   27 am
   4    3    4 1
   5    3   19 1
   6    4    5 1
   7    4   39 1
   8    4   40 1
   9    5    6 1
  10    5   41 1
  11    5   42 1
  12    6    7 1
  13    6   13 1
  14    6   43 1
  15    7    8 ar
  16    7   12 ar
  17    8    9 ar
  18    8   44 1
  19    9   10 ar
  20    9   45 1
  21   10   11 ar
  22   10   46 1
  23   11   12 ar
  24   11   47 1
  25   12   48 1
  26   13   14 ar
  27   13   18 ar
  28   14   15 ar
  29   14   49 1
  30   15   16 ar
  31   15   50 1
  32   16   17 ar
  33   16   51 1
  34   17   18 ar
  35   17   52 1
  36   18   53 1
  37   19   20 1
  38   19   54 1
  39   19   55 1
  40   20   21 1
  41   20   56 1
  42   20   57 1
  43   21   22 1
  44   21   26 1
  45   22   23 1
  46   22   58 1
  47   22   59 1
  48   23   24 1
  49   23   60 1
  50   23   61 1
  51   24   25 1
  52   25   26 1
  53   25   62 1
  54   25   63 1
  55   26   64 1
  56   26   65 1
  57   27   28 1
  58   27   66 1
  59   28   29 2
  60   28   32 1
  61   29   30 1
  62   30   31 1
  63   31   32 2
  64   31   33 1
  65   33   34 ar
  66   33   38 ar
  67   34   35 ar
  68   34   67 1
  69   35   36 ar
  70   35   68 1
  71   36   37 ar
  72   36   69 1
  73   37   38 ar
  74   37   70 1
  75   38   71 1

#	End of record

