#	Name: ASD01418059
#	Creating user name:	WinNT
#	Creation time:	15. 06. 2019 19:20

#	Modifying user name:	WinNT
#	Modification time:	15. 06. 2019 19:20

#	Program:	/corina/corina34_cracker 3.40 0067  02.08.2006

@<TRIPOS>MOLECULE
ASD01418059
  68   72    0    0    0
SMALL
NO_CHARGES


@<TRIPOS>ATOM
   1 C1            -0.0169     1.3956     0.0097 C.ar    
   2 C2             0.0021    -0.0041     0.0020 C.ar    
   3 C3            -1.1477    -0.7452     0.0104 C.ar    
   4 C4            -2.3626    -0.0402     0.0266 C.ar    
   5 C5            -2.3923     1.3804     0.0324 C.ar    
   6 C6            -1.2167     2.1183     0.0308 C.ar    
   7 C7            -3.6952    -0.4761     0.0421 C.2     
   8 C8            -4.4926     0.6316     0.0595 C.2     
   9 N9            -3.7066     1.7611     0.0373 N.pl3   
  10 C10           -5.9674     0.6183     0.1169 C.ar    
  11 C11           -6.5922    -0.3845     0.8649 C.ar    
  12 C12           -7.9646    -0.4115     0.9843 C.ar    
  13 C13           -8.7377     0.5618     0.3659 C.ar    
  14 C14           -8.1427     1.5486    -0.3899 C.ar    
  15 C15           -6.7462     1.5810    -0.5464 C.ar    
  16 C16           -4.1627    -1.9088     0.0396 C.3     
  17 C17           -3.6519    -2.6097    -1.2208 C.3     
  18 C18           -4.1266    -4.0642    -1.2233 C.3     
  19 C19           -3.5825    -4.7804     0.0144 C.3     
  20 C20           -4.0933    -4.0794     1.2749 C.3     
  21 C21           -3.6187    -2.6249     1.2774 C.3     
  22 C22            1.2616     2.1296     0.0014 C.2     
  23 O23            2.4270     1.4529    -0.0133 O.3     
  24 C24           -4.2155     3.1377    -0.0016 C.3     
  25 C25           -6.1802     2.5922    -1.4283 C.2     
  26 C26           -5.0639     3.2973    -1.2343 C.2     
  27 C27           -4.6510     4.2584    -2.2545 C.2     
  28 O28           -3.5266     4.9840    -2.0822 O.3     
  29 O29           -5.3210     4.4044    -3.2592 O.2     
  30 C30           -3.1831     5.9047    -3.1197 C.3     
  31 F31          -10.0813     0.5412     0.5056 F       
  32 O32            1.2647     3.3447     0.0079 O.2     
  33 C33           -4.3097     6.9261    -3.2887 C.3     
  34 C34           -1.8880     6.6303    -2.7496 C.3     
  35 C35           -2.9840     5.1433    -4.4318 C.3     
  36 C36            3.6467     2.2407    -0.0207 C.3     
  37 H37            0.9537    -0.5146    -0.0113 H       
  38 H38           -1.1225    -1.8249     0.0044 H       
  39 H39           -1.2266     3.1982     0.0374 H       
  40 H40           -5.9959    -1.1422     1.3513 H       
  41 H41           -8.4401    -1.1918     1.5600 H       
  42 H42           -8.7534     2.3017    -0.8655 H       
  43 H43           -5.2523    -1.9354     0.0540 H       
  44 H44           -4.0395    -2.0995    -2.1026 H       
  45 H45           -2.5624    -2.5830    -1.2351 H       
  46 H46           -5.2161    -4.0909    -1.2090 H       
  47 H47           -3.7627    -4.5636    -2.1213 H       
  48 H48           -3.9207    -5.8166     0.0126 H       
  49 H49           -2.4930    -4.7537     0.0001 H       
  50 H50           -5.1829    -4.1061     1.2892 H       
  51 H51           -3.7058    -4.5896     2.1567 H       
  52 H52           -2.5291    -2.5982     1.2631 H       
  53 H53           -3.9826    -2.1256     2.1754 H       
  54 H54           -4.8185     3.3306     0.8856 H       
  55 H55           -3.3796     3.8363    -0.0392 H       
  56 H56           -6.7232     2.7931    -2.3400 H       
  57 H57           -4.4515     7.4685    -2.3540 H       
  58 H58           -4.0477     7.6283    -4.0801 H       
  59 H59           -5.2323     6.4091    -3.5524 H       
  60 H60           -1.0855     5.9026    -2.6292 H       
  61 H61           -1.6261     7.3326    -3.5410 H       
  62 H62           -2.0299     7.1727    -1.8148 H       
  63 H63           -3.9067     4.6263    -4.6955 H       
  64 H64           -2.7220     5.8455    -5.2232 H       
  65 H65           -2.1814     4.4156    -4.3114 H       
  66 H66            3.6646     2.8742    -0.9075 H       
  67 H67            3.6816     2.8647     0.8723 H       
  68 H68            4.5094     1.5746    -0.0325 H       
@<TRIPOS>BOND
   1    1    2 ar
   2    1   22 1
   3    1    6 ar
   4    2    3 ar
   5    2   37 1
   6    3    4 ar
   7    3   38 1
   8    4    5 ar
   9    4    7 1
  10    5    6 ar
  11    5    9 1
  12    6   39 1
  13    7    8 2
  14    7   16 1
  15    8    9 1
  16    8   10 1
  17    9   24 1
  18   10   11 ar
  19   10   15 ar
  20   11   12 ar
  21   11   40 1
  22   12   13 ar
  23   12   41 1
  24   13   14 ar
  25   13   31 1
  26   14   15 ar
  27   14   42 1
  28   15   25 1
  29   16   17 1
  30   16   21 1
  31   16   43 1
  32   17   18 1
  33   17   44 1
  34   17   45 1
  35   18   19 1
  36   18   46 1
  37   18   47 1
  38   19   20 1
  39   19   48 1
  40   19   49 1
  41   20   21 1
  42   20   50 1
  43   20   51 1
  44   21   52 1
  45   21   53 1
  46   22   23 1
  47   22   32 2
  48   23   36 1
  49   24   26 1
  50   24   54 1
  51   24   55 1
  52   25   26 2
  53   25   56 1
  54   26   27 1
  55   27   28 1
  56   27   29 2
  57   28   30 1
  58   30   33 1
  59   30   34 1
  60   30   35 1
  61   33   57 1
  62   33   58 1
  63   33   59 1
  64   34   60 1
  65   34   61 1
  66   34   62 1
  67   35   63 1
  68   35   64 1
  69   35   65 1
  70   36   66 1
  71   36   67 1
  72   36   68 1

#	End of record

