#	Name: ASD08830106
#	Creating user name:	WinNT
#	Creation time:	15. 06. 2019 21:19

#	Modifying user name:	WinNT
#	Modification time:	15. 06. 2019 21:19

#	Program:	/corina/corina34_cracker 3.40 0067  02.08.2006

@<TRIPOS>MOLECULE
ASD08830106
  36   38    0    0    0
SMALL
NO_CHARGES


@<TRIPOS>ATOM
   1 C1            -0.0178     1.4644     0.0101 C.ar    
   2 C2             0.0021    -0.0041     0.0020 C.2     
   3 C3            -1.2926    -0.7753     0.0102 C.3     
   4 C4            -0.9927    -2.2755    -0.0007 C.3     
   5 N5            -2.2547    -3.0273     0.0073 N.3     
   6 O6             1.0606    -0.5962    -0.0113 O.2     
   7 C7             1.1838     2.1833     0.0025 C.ar    
   8 C8             1.1596     3.5632     0.0102 C.ar    
   9 C9            -0.0616     4.2401     0.0257 C.ar    
  10 C10           -1.2538     3.5266     0.0339 C.ar    
  11 C11           -1.2384     2.1502     0.0196 C.ar    
  12 C12           -2.0181    -4.4568    -0.2410 C.3     
  13 C13           -3.3490    -5.2097    -0.1649 C.3     
  14 O14           -4.2665    -4.6418    -1.1035 O.3     
  15 C15           -4.5205    -3.2506    -0.8906 C.3     
  16 C16           -3.2015    -2.4779    -0.9741 C.3     
  17 O17            2.1675     4.4843     0.0047 O.3     
  18 C18            1.5527     5.7230    -0.3959 C.3     
  19 O19            0.1851     5.5808     0.0305 O.3     
  20 H20           -1.8592    -0.5245     0.9070 H       
  21 H21           -1.8762    -0.5150    -0.8728 H       
  22 H22           -0.4261    -2.5263    -0.8975 H       
  23 H23           -0.4091    -2.5358     0.8824 H       
  24 H24            2.1278     1.6588    -0.0091 H       
  25 H25           -2.1963     4.0539     0.0457 H       
  26 H26           -2.1674     1.5995     0.0256 H       
  27 H27           -1.5824    -4.5869    -1.2316 H       
  28 H28           -1.3346    -4.8488     0.5123 H       
  29 H29           -3.1869    -6.2606    -0.4046 H       
  30 H30           -3.7584    -5.1242     0.8417 H       
  31 H31           -5.2057    -2.8846    -1.6552 H       
  32 H32           -4.9640    -3.1082     0.0948 H       
  33 H33           -3.3819    -1.4252    -0.7560 H       
  34 H34           -2.7847    -2.5763    -1.9764 H       
  35 H35            2.0254     6.5657     0.1086 H       
  36 H36            1.6058     5.8445    -1.4778 H       
@<TRIPOS>BOND
   1    1    2 1
   2    1    7 ar
   3    1   11 ar
   4    2    3 1
   5    2    6 2
   6    3    4 1
   7    3   20 1
   8    3   21 1
   9    4    5 1
  10    4   22 1
  11    4   23 1
  12    5   12 1
  13    5   16 1
  14    7    8 ar
  15    7   24 1
  16    8    9 ar
  17    8   17 1
  18    9   10 ar
  19    9   19 1
  20   10   11 ar
  21   10   25 1
  22   11   26 1
  23   12   13 1
  24   12   27 1
  25   12   28 1
  26   13   14 1
  27   13   29 1
  28   13   30 1
  29   14   15 1
  30   15   16 1
  31   15   31 1
  32   15   32 1
  33   16   33 1
  34   16   34 1
  35   17   18 1
  36   18   19 1
  37   18   35 1
  38   18   36 1

#	End of record

