#	Name: ASD01148066
#	Creating user name:	WinNT
#	Creation time:	15. 06. 2019 19:01

#	Modifying user name:	WinNT
#	Modification time:	15. 06. 2019 19:01

#	Program:	/corina/corina34_cracker 3.40 0067  02.08.2006

@<TRIPOS>MOLECULE
ASD01148066
  43   43    0    0    0
SMALL
NO_CHARGES


@<TRIPOS>ATOM
   1 C1            -0.0184     1.5028     0.0103 C.2     
   2 C2             0.0021    -0.0041     0.0020 C.3     
   3 C3            -0.7002    -0.5305     1.2552 C.3     
   4 O4             1.0236     2.1234     0.0037 O.2     
   5 N5            -1.1946     2.1607     0.0195 N.am    
   6 O6            -0.0945     0.0411     2.4164 O.3     
   7 C7            -0.6794    -0.3874     3.6478 C.3     
   8 F8            -2.0322    -0.0316     3.6703 F       
   9 F9            -0.5606    -1.7767     3.7618 F       
  10 C10           -1.2145     3.6256     0.0275 C.3     
  11 C11           -2.6419     4.1085     0.0369 C.2     
  12 N12            1.3897    -0.4735    -0.0138 N.am    
  13 C13            1.6843    -1.6889    -0.5164 C.2     
  14 O14            2.9596    -2.1204    -0.5309 O.3     
  15 O15            0.7989    -2.3952    -0.9565 O.2     
  16 C16            3.2029    -3.4393    -1.0871 C.3     
  17 C17            2.7417    -3.4709    -2.5456 C.3     
  18 C18            4.6987    -3.7538    -1.0183 C.3     
  19 C19            2.4249    -4.4832    -0.2835 C.3     
  20 C20           -3.3417     4.3408     1.2085 C.2     
  21 C21           -4.5947     4.7659     1.0399 C.2     
  22 S22           -4.9484     4.8927    -0.6784 S.3     
  23 C23           -3.3250     4.3500    -1.0830 C.2     
  24 H24           -0.5153    -0.3696    -0.8850 H       
  25 H25           -1.7547    -0.2563     1.2231 H       
  26 H26           -0.6082    -1.6159     1.2944 H       
  27 H27           -2.0280     1.6644     0.0207 H       
  28 H28           -0.1640     0.0909     4.4807 H       
  29 H29           -0.7014     3.9910     0.9171 H       
  30 H30           -0.7098     4.0007    -0.8628 H       
  31 H31            2.0965     0.0903     0.3376 H       
  32 H32            3.2960    -2.7272    -3.1181 H       
  33 H33            2.9244    -4.4610    -2.9631 H       
  34 H34            1.6761    -3.2468    -2.5946 H       
  35 H35            5.0273    -3.7313     0.0207 H       
  36 H36            4.8814    -4.7439    -1.4359 H       
  37 H37            5.2530    -3.0101    -1.5909 H       
  38 H38            1.3593    -4.2592    -0.3324 H       
  39 H39            2.6076    -5.4734    -0.7010 H       
  40 H40            2.7535    -4.4608     0.7556 H       
  41 H41           -2.9062     4.1890     2.1850 H       
  42 H42           -5.2865     4.9964     1.8366 H       
  43 H43           -2.9417     4.2261    -2.0851 H       
@<TRIPOS>BOND
   1    1    2 1
   2    1    4 2
   3    1    5 am
   4    2    3 1
   5    2   12 1
   6    2   24 1
   7    3    6 1
   8    3   25 1
   9    3   26 1
  10    5   10 1
  11    5   27 1
  12    6    7 1
  13    7    8 1
  14    7    9 1
  15    7   28 1
  16   10   11 1
  17   10   29 1
  18   10   30 1
  19   11   20 1
  20   11   23 2
  21   12   13 am
  22   12   31 1
  23   13   14 1
  24   13   15 2
  25   14   16 1
  26   16   17 1
  27   16   18 1
  28   16   19 1
  29   17   32 1
  30   17   33 1
  31   17   34 1
  32   18   35 1
  33   18   36 1
  34   18   37 1
  35   19   38 1
  36   19   39 1
  37   19   40 1
  38   20   21 2
  39   20   41 1
  40   21   22 1
  41   21   42 1
  42   22   23 1
  43   23   43 1

#	End of record

