#	Name: ASD03090180
#	Creating user name:	WinNT
#	Creation time:	15. 06. 2019 20:28

#	Modifying user name:	WinNT
#	Modification time:	15. 06. 2019 20:28

#	Program:	/corina/corina34_cracker 3.40 0067  02.08.2006

@<TRIPOS>MOLECULE
ASD03090180
  39   41    0    0    0
SMALL
NO_CHARGES


@<TRIPOS>ATOM
   1 C1            -0.4001     1.5668    -1.8764 C.ar    
   2 C2            -0.3321     0.1988    -1.6697 C.ar    
   3 C3            -1.4394    -0.4668    -1.1763 C.ar    
   4 C4            -2.5939     0.2764    -0.9037 C.ar    
   5 C5            -2.5824     1.6508    -1.1390 C.ar    
   6 N6            -1.5015     2.2420    -1.6053 N.ar    
   7 C7            -3.8068    -0.3856    -0.3751 C.2     
   8 N8            -5.5403    -3.0300     1.1612 N.pl3   
   9 C9            -4.6143    -4.0294     1.4774 C.ar    
  10 C10           -3.3089    -3.6887     1.8063 C.ar    
  11 C11           -2.3950    -4.6768     2.1190 C.ar    
  12 C12           -2.7789    -6.0062     2.1044 C.ar    
  13 C13           -4.0820    -6.3500     1.7759 C.ar    
  14 C14           -5.0009    -5.3635     1.4684 C.ar    
  15 N15           -3.8582    -1.5786     0.1832 N.2     
  16 C16           -5.1136    -1.8537     0.5417 C.2     
  17 N17           -5.8833    -0.8405     0.2176 N.2     
  18 N18           -5.0571     0.1285    -0.3742 N.pl3   
  19 C19           -5.4699     1.4337    -0.8961 C.3     
  20 C20           -6.9968     1.5294    -0.8807 C.3     
  21 F21           -4.4549    -7.6484     1.7618 F       
  22 O22           -7.4662     1.4382     0.4659 O.3     
  23 C23           -7.4300     2.8678    -1.4824 C.3     
  24 Cl24           0.9871     2.4074    -2.4950 Cl      
  25 F25           -1.8834    -6.9704     2.4101 F       
  26 H26            0.5759    -0.3422    -1.8917 H       
  27 H27           -1.4142    -1.5330    -1.0059 H       
  28 H28           -3.4662     2.2364    -0.9332 H       
  29 H29           -6.4789    -3.1541     1.3723 H       
  30 H30           -3.0078    -2.6516     1.8174 H       
  31 H31           -1.3799    -4.4112     2.3748 H       
  32 H32           -6.0155    -5.6306     1.2126 H       
  33 H33           -5.0500     2.2234    -0.2730 H       
  34 H34           -5.1090     1.5468    -1.9184 H       
  35 H35           -7.4179     0.7136    -1.4683 H       
  36 H36           -7.0735     2.0886     1.0642 H       
  37 H37           -7.0719     2.9373    -2.5095 H       
  38 H38           -8.5178     2.9360    -1.4714 H       
  39 H39           -7.0089     3.6836    -0.8948 H       
@<TRIPOS>BOND
   1    1    2 ar
   2    1   24 1
   3    1    6 ar
   4    2    3 ar
   5    2   26 1
   6    3    4 ar
   7    3   27 1
   8    4    5 ar
   9    4    7 1
  10    5    6 ar
  11    5   28 1
  12    7   15 2
  13    7   18 1
  14    8    9 1
  15    8   16 1
  16    8   29 1
  17    9   10 ar
  18    9   14 ar
  19   10   11 ar
  20   10   30 1
  21   11   12 ar
  22   11   31 1
  23   12   13 ar
  24   12   25 1
  25   13   14 ar
  26   13   21 1
  27   14   32 1
  28   15   16 1
  29   16   17 2
  30   17   18 1
  31   18   19 1
  32   19   20 1
  33   19   33 1
  34   19   34 1
  35   20   22 1
  36   20   23 1
  37   20   35 1
  38   22   36 1
  39   23   37 1
  40   23   38 1
  41   23   39 1

#	End of record

