#	Name: ASD02038128
#	Creating user name:	WinNT
#	Creation time:	15. 06. 2019 20:16

#	Modifying user name:	WinNT
#	Modification time:	15. 06. 2019 20:16

#	Program:	/corina/corina34_cracker 3.40 0067  02.08.2006

@<TRIPOS>MOLECULE
ASD02038128
  47   49    0    0    0
SMALL
NO_CHARGES


@<TRIPOS>ATOM
   1 C1            -0.0167     1.3796     0.0096 C.ar    
   2 C2             0.0021    -0.0041     0.0020 C.ar    
   3 C3             1.1706     2.0903     0.0021 C.ar    
   4 C4             2.3781     1.4200    -0.0131 C.ar    
   5 C5             2.3999     0.0313    -0.0208 C.ar    
   6 C6             1.2066    -0.6795    -0.0132 C.ar    
   7 C7             4.4542    -0.2619     1.1089 C.3     
   8 C8             5.6896    -1.1158     1.1567 C.2     
   9 N9             5.7968    -2.2710     0.4918 N.am    
  10 C10            7.0301    -3.0487     0.6343 C.3     
  11 C11            6.8880    -4.0196     1.8082 C.3     
  12 O12            6.6478    -3.2831     3.0090 O.3     
  13 C13            8.1760    -4.8318     1.9570 C.3     
  14 O14            8.0023    -5.8177     2.9768 O.3     
  15 C15            9.0612    -6.6303     3.2366 C.ar    
  16 C16            8.9607    -7.6091     4.2142 C.ar    
  17 C17           10.2398    -6.4841     2.5202 C.ar    
  18 C18           11.3154    -7.3096     2.7842 C.ar    
  19 C19           11.2170    -8.2843     3.7660 C.ar    
  20 C20           10.0364    -8.4345     4.4782 C.ar    
  21 O21           12.2758    -9.0972     4.0256 O.3     
  22 Cl22          -1.5326     2.2254     0.0214 Cl      
  23 C23            4.7392    -2.7920    -0.3696 C.3     
  24 C24            3.4112    -2.1066    -0.0424 C.3     
  25 N25            3.6201    -0.6496    -0.0366 N.3     
  26 O26            6.6291    -0.7414     1.8261 O.2     
  27 H27           -0.9261    -0.5562     0.0083 H       
  28 H28            1.1531     3.1702     0.0078 H       
  29 H29            3.3044     1.9752    -0.0193 H       
  30 H30            1.2207    -1.7594    -0.0188 H       
  31 H31            3.8872    -0.3940     2.0304 H       
  32 H32            4.7414     0.7848     1.0095 H       
  33 H33            7.2133    -3.6104    -0.2817 H       
  34 H34            7.8657    -2.3739     0.8200 H       
  35 H35            6.0523    -4.6944     1.6225 H       
  36 H36            7.3525    -2.6614     3.2367 H       
  37 H37            8.4068    -5.3234     1.0119 H       
  38 H38            8.9953    -4.1669     2.2303 H       
  39 H39            8.0416    -7.7256     4.7693 H       
  40 H40           10.3164    -5.7252     1.7557 H       
  41 H41           12.2329    -7.1962     2.2258 H       
  42 H42            9.9599    -9.1933     5.2430 H       
  43 H43           12.8768    -8.7563     4.7020 H       
  44 H44            4.9962    -2.6036    -1.4120 H       
  45 H45            4.6404    -3.8659    -0.2116 H       
  46 H46            2.6698    -2.3665    -0.7979 H       
  47 H47            3.0650    -2.4301     0.9392 H       
@<TRIPOS>BOND
   1    1    2 ar
   2    1    3 ar
   3    1   22 1
   4    2    6 ar
   5    2   27 1
   6    3    4 ar
   7    3   28 1
   8    4    5 ar
   9    4   29 1
  10    5    6 ar
  11    5   25 1
  12    6   30 1
  13    7    8 1
  14    7   25 1
  15    7   31 1
  16    7   32 1
  17    8    9 am
  18    8   26 2
  19    9   10 1
  20    9   23 1
  21   10   11 1
  22   10   33 1
  23   10   34 1
  24   11   12 1
  25   11   13 1
  26   11   35 1
  27   12   36 1
  28   13   14 1
  29   13   37 1
  30   13   38 1
  31   14   15 1
  32   15   16 ar
  33   15   17 ar
  34   16   20 ar
  35   16   39 1
  36   17   18 ar
  37   17   40 1
  38   18   19 ar
  39   18   41 1
  40   19   20 ar
  41   19   21 1
  42   20   42 1
  43   21   43 1
  44   23   24 1
  45   23   44 1
  46   23   45 1
  47   24   25 1
  48   24   46 1
  49   24   47 1

#	End of record

