#	Name: ASD01141033
#	Creating user name:	WinNT
#	Creation time:	15. 06. 2019 19:01

#	Modifying user name:	WinNT
#	Modification time:	15. 06. 2019 19:01

#	Program:	/corina/corina34_cracker 3.40 0067  02.08.2006

@<TRIPOS>MOLECULE
ASD01141033
  54   55    0    0    0
SMALL
NO_CHARGES


@<TRIPOS>ATOM
   1 C1             0.0969     1.5582    -0.1219 C.ar    
   2 C2             0.1945     0.1793    -0.2689 C.ar    
   3 C3             1.2505     2.3225     0.0103 C.ar    
   4 O4            -1.1241     2.1587    -0.1130 O.3     
   5 C5             1.4411    -0.4280    -0.2832 C.ar    
   6 C6             2.4931     1.7071    -0.0050 C.ar    
   7 O7             1.1607     3.6716     0.1540 O.3     
   8 C8            -1.7264     2.2970     1.0784 C.2     
   9 C9             2.5856     0.3357    -0.1510 C.ar    
  10 C10           -3.0805     2.9525     1.1665 C.3     
  11 O11           -1.1812     1.8947     2.0834 O.2     
  12 N12           -3.1686     4.0299     0.1718 N.3     
  13 C13           -4.1691     1.9134     0.8907 C.3     
  14 C14           -3.2748     3.5351     2.5679 C.3     
  15 C15            2.3872     4.3933     0.2845 C.3     
  16 O16           -0.9308    -0.5730    -0.3981 O.3     
  17 C17           -0.7549    -1.9834    -0.5454 C.3     
  18 C18           -2.1435     5.0554     0.4137 C.3     
  19 C19           -2.2324     6.1255    -0.6776 C.3     
  20 O20           -3.5532     6.6737    -0.6942 O.3     
  21 C21           -4.5767     5.7025    -0.9280 C.3     
  22 C22           -4.5115     4.6281     0.1607 C.3     
  23 C23            3.9381    -0.3287    -0.1661 C.3     
  24 C24           -3.9747     1.3308    -0.5107 C.3     
  25 C25           -3.3313     2.3977     3.5897 C.3     
  26 H26            1.5178    -1.4992    -0.3974 H       
  27 H27            3.3899     2.3002     0.0976 H       
  28 H28           -4.1037     1.1140     1.6288 H       
  29 H29           -5.1485     2.3875     0.9545 H       
  30 H30           -2.4412     4.1959     2.8054 H       
  31 H31           -4.2067     4.0995     2.6007 H       
  32 H32            2.9245     4.0402     1.1647 H       
  33 H33            2.9991     4.2334    -0.6032 H       
  34 H34            2.1734     5.4567     0.3917 H       
  35 H35           -0.2374    -2.3783     0.3289 H       
  36 H36           -1.7291    -2.4633    -0.6385 H       
  37 H37           -0.1639    -2.1845    -1.4390 H       
  38 H38           -2.3106     5.5145     1.3880 H       
  39 H39           -1.1558     4.5949     0.3922 H       
  40 H40           -1.5124     6.9172    -0.4706 H       
  41 H41           -2.0124     5.6767    -1.6463 H       
  42 H42           -5.5521     6.1882    -0.9021 H       
  43 H43           -4.4248     5.2414    -1.9039 H       
  44 H44           -5.2524     3.8557    -0.0454 H       
  45 H45           -4.7165     5.0803     1.1311 H       
  46 H46            4.3076    -0.3773    -1.1904 H       
  47 H47            4.6332     0.2482     0.4439 H       
  48 H48            3.8518    -1.3377     0.2372 H       
  49 H49           -4.7502     0.5905    -0.7072 H       
  50 H50           -4.0401     2.1302    -1.2487 H       
  51 H51           -2.9953     0.8567    -0.5744 H       
  52 H52           -2.3580     1.9100     3.6446 H       
  53 H53           -3.5913     2.8011     4.5683 H       
  54 H54           -4.0847     1.6717     3.2840 H       
@<TRIPOS>BOND
   1    1    2 ar
   2    1    3 ar
   3    1    4 1
   4    2    5 ar
   5    2   16 1
   6    3    6 ar
   7    3    7 1
   8    4    8 1
   9    5    9 ar
  10    5   26 1
  11    6    9 ar
  12    6   27 1
  13    7   15 1
  14    8   10 1
  15    8   11 2
  16    9   23 1
  17   10   13 1
  18   10   14 1
  19   10   12 1
  20   12   18 1
  21   12   22 1
  22   13   24 1
  23   13   28 1
  24   13   29 1
  25   14   25 1
  26   14   30 1
  27   14   31 1
  28   15   32 1
  29   15   33 1
  30   15   34 1
  31   16   17 1
  32   17   35 1
  33   17   36 1
  34   17   37 1
  35   18   19 1
  36   18   38 1
  37   18   39 1
  38   19   20 1
  39   19   40 1
  40   19   41 1
  41   20   21 1
  42   21   22 1
  43   21   42 1
  44   21   43 1
  45   22   44 1
  46   22   45 1
  47   23   46 1
  48   23   47 1
  49   23   48 1
  50   24   49 1
  51   24   50 1
  52   24   51 1
  53   25   52 1
  54   25   53 1
  55   25   54 1

#	End of record

