#	Name: ASD01028425
#	Creating user name:	WinNT
#	Creation time:	15. 06. 2019 18:57

#	Modifying user name:	WinNT
#	Modification time:	15. 06. 2019 18:57

#	Program:	/corina/corina34_cracker 3.40 0067  02.08.2006

@<TRIPOS>MOLECULE
ASD01028425
  53   57    0    0    0
SMALL
NO_CHARGES


@<TRIPOS>ATOM
   1 C1            -0.2398     1.3755     0.0926 C.ar    
   2 C2            -0.2433    -0.0408     0.0970 C.ar    
   3 C3             0.9986     2.0554     0.0579 C.ar    
   4 C4             2.1549     1.2963     0.0297 C.ar    
   5 C5             2.0695    -0.0901     0.0361 C.ar    
   6 N6             0.9142    -0.7119     0.0689 N.ar    
   7 O7             1.0518     3.4101     0.0520 O.3     
   8 C8             2.3492     4.0082     0.0160 C.3     
   9 C9             2.2106     5.5089     0.0146 C.2     
  10 N10            2.1659     6.3063     1.1040 N.pl3   
  11 C11            2.0349     7.5897     0.6295 C.2     
  12 N12            2.0073     7.5088    -0.6908 N.2     
  13 N13            2.1175     6.2756    -1.0433 N.2     
  14 N14            2.2237     6.0707     2.4791 N.2     
  15 C15            2.1536     7.0706     3.3304 C.2     
  16 C16            2.0189     8.3993     2.8741 C.2     
  17 C17            1.9607     8.6597     1.5416 C.2     
  18 C18            2.2164     6.7987     4.7868 C.ar    
  19 C19           -1.4709    -0.7212     0.1316 C.ar    
  20 C20           -2.6455    -0.0041     0.1604 C.ar    
  21 C21           -2.6304     1.3937     0.1557 C.ar    
  22 C22           -1.4539     2.0770     0.1283 C.ar    
  23 O23           -3.8332    -0.6625     0.1934 O.3     
  24 C24           -5.0174     0.1368     0.2223 C.3     
  25 C25            2.3490     5.4898     5.2473 C.ar    
  26 C26            2.4077     5.2383     6.6020 C.ar    
  27 C27            2.3350     6.2880     7.5087 C.ar    
  28 C28            2.2026     7.5966     7.0523 C.ar    
  29 C29            2.1487     7.8529     5.6974 C.ar    
  30 N30            2.3944     6.0300     8.8822 N.am    
  31 F31            2.1320     8.6161     7.9359 F       
  32 C32            3.0140     4.9214     9.3334 C.2     
  33 C33            3.1563     4.6881    10.8154 C.3     
  34 O34            3.4571     4.1116     8.5467 O.2     
  35 H35            3.1203     1.7799     0.0024 H       
  36 H36            2.9788    -0.6724     0.0135 H       
  37 H37            2.9173     3.6966     0.8924 H       
  38 H38            2.8707     3.6907    -0.8869 H       
  39 H39            1.9622     9.2104     3.5850 H       
  40 H40            1.8579     9.6745     1.1868 H       
  41 H41           -1.4935    -1.8009     0.1352 H       
  42 H42           -3.5632     1.9376     0.1783 H       
  43 H43           -1.4552     3.1570     0.1249 H       
  44 H44           -5.8931    -0.5119     0.2471 H       
  45 H45           -5.0079     0.7684     1.1106 H       
  46 H46           -5.0546     0.7635    -0.6687 H       
  47 H47            2.4053     4.6727     4.5434 H       
  48 H48            2.5101     4.2239     6.9584 H       
  49 H49            2.0464     8.8679     5.3429 H       
  50 H50            1.9896     6.6489     9.5099 H       
  51 H51            2.1678     4.6418    11.2725 H       
  52 H52            3.6802     3.7477    10.9865 H       
  53 H53            3.7238     5.5061    11.2592 H       
@<TRIPOS>BOND
   1    1    2 ar
   2    1    3 ar
   3    1   22 ar
   4    2   19 ar
   5    2    6 ar
   6    3    4 ar
   7    3    7 1
   8    4    5 ar
   9    4   35 1
  10    5    6 ar
  11    5   36 1
  12    7    8 1
  13    8    9 1
  14    8   37 1
  15    8   38 1
  16    9   10 1
  17    9   13 2
  18   10   11 1
  19   10   14 1
  20   11   12 2
  21   11   17 1
  22   12   13 1
  23   14   15 2
  24   15   16 1
  25   15   18 1
  26   16   17 2
  27   16   39 1
  28   17   40 1
  29   18   25 ar
  30   18   29 ar
  31   19   20 ar
  32   19   41 1
  33   20   21 ar
  34   20   23 1
  35   21   22 ar
  36   21   42 1
  37   22   43 1
  38   23   24 1
  39   24   44 1
  40   24   45 1
  41   24   46 1
  42   25   26 ar
  43   25   47 1
  44   26   27 ar
  45   26   48 1
  46   27   28 ar
  47   27   30 1
  48   28   29 ar
  49   28   31 1
  50   29   49 1
  51   30   32 am
  52   30   50 1
  53   32   33 1
  54   32   34 2
  55   33   51 1
  56   33   52 1
  57   33   53 1

#	End of record

