#	Name: ASD02500587
#	Creating user name:	WinNT
#	Creation time:	15. 06. 2019 20:23

#	Modifying user name:	WinNT
#	Modification time:	15. 06. 2019 20:23

#	Program:	/corina/corina34_cracker 3.40 0067  02.08.2006

@<TRIPOS>MOLECULE
ASD02500587
  70   74    0    0    0
SMALL
NO_CHARGES


@<TRIPOS>ATOM
   1 N1            -3.6593     5.9355    -1.4714 N.ar    
   2 C2            -4.4676     6.6007    -2.2604 C.ar    
   3 C3            -5.8464     6.6080    -2.0599 C.ar    
   4 C4            -6.3876     5.9088    -1.0190 C.ar    
   5 C5            -5.5166     5.1953    -0.1740 C.ar    
   6 C6            -5.9995     4.4543     0.9163 C.ar    
   7 C7            -5.1245     3.7778     1.7106 C.ar    
   8 C8            -3.7551     3.8114     1.4562 C.ar    
   9 C9            -3.2527     4.5196     0.4081 C.ar    
  10 C10           -4.1241     5.2310    -0.4347 C.ar    
  11 S11           -1.5164     4.5454     0.1095 S.o2    
  12 O12           -1.1557     5.9114    -0.0429 O.2     
  13 O13           -0.9294     3.6902     1.0808 O.2     
  14 N14           -1.2611     3.8276    -1.3609 N.am    
  15 C15           -1.5097     2.4693    -1.5240 C.ar    
  16 C16           -0.7215     1.7180    -2.3918 C.ar    
  17 C17           -0.9650     0.3737    -2.5553 C.ar    
  18 C18           -2.0052    -0.2378    -1.8490 C.ar    
  19 C19           -2.7947     0.5192    -0.9786 C.ar    
  20 C20           -2.5425     1.8622    -0.8151 C.ar    
  21 C21           -2.2693    -1.6787    -2.0224 C.2     
  22 O22           -2.1996    -2.1809    -3.1276 O.2     
  23 N23           -2.5878    -2.4386    -0.9558 N.am    
  24 C24           -2.7647    -3.8925    -1.0905 C.3     
  25 C25           -1.9085    -4.5877    -0.0266 C.3     
  26 N26           -2.2387    -4.0417     1.2966 N.3     
  27 C27           -1.9114    -2.6120     1.3800 C.3     
  28 C28           -2.7618    -1.8368     0.3749 C.3     
  29 C29           -1.5664    -4.7986     2.3611 C.3     
  30 C30           -1.7278    -4.0605     3.6916 C.3     
  31 C31           -1.0277    -4.8489     4.8003 C.3     
  32 C32           -1.1866    -4.1219     6.1108 C.ar    
  33 C33           -2.2723    -4.3909     6.9231 C.ar    
  34 C34           -2.4182    -3.7241     8.1251 C.ar    
  35 C35           -1.4781    -2.7886     8.5151 C.ar    
  36 C36           -0.3920    -2.5203     7.7032 C.ar    
  37 C37           -0.2438    -3.1902     6.5032 C.ar    
  38 C38            0.3991     2.3780    -3.1530 C.3     
  39 H39           -4.0537     7.1581    -3.0877 H       
  40 H40           -6.4866     7.1663    -2.7269 H       
  41 H41           -7.4541     5.9038    -0.8486 H       
  42 H42           -7.0588     4.4213     1.1240 H       
  43 H43           -5.4969     3.2080     2.5491 H       
  44 H44           -3.0814     3.2670     2.1012 H       
  45 H45           -0.9381     4.3547    -2.1084 H       
  46 H46           -0.3535    -0.2084    -3.2288 H       
  47 H47           -3.5989     0.0496    -0.4316 H       
  48 H48           -3.1490     2.4466    -0.1391 H       
  49 H49           -3.8135    -4.1491    -0.9415 H       
  50 H50           -2.4446    -4.2099    -2.0829 H       
  51 H51           -2.1114    -5.6585    -0.0392 H       
  52 H52           -0.8534    -4.4144    -0.2386 H       
  53 H53           -2.1164    -2.2501     2.3875 H       
  54 H54           -0.8563    -2.4663     1.1484 H       
  55 H55           -2.4397    -0.7957     0.3509 H       
  56 H56           -3.8103    -1.8919     0.6675 H       
  57 H57           -2.0124    -5.7901     2.4392 H       
  58 H58           -0.5066    -4.8945     2.1251 H       
  59 H59           -1.2818    -3.0690     3.6135 H       
  60 H60           -2.7876    -3.9647     3.9277 H       
  61 H61           -1.4737    -5.8404     4.8784 H       
  62 H62            0.0321    -4.9447     4.5642 H       
  63 H63           -3.0068    -5.1218     6.6184 H       
  64 H64           -3.2668    -3.9337     8.7595 H       
  65 H65           -1.5924    -2.2671     9.4539 H       
  66 H66            0.3423    -1.7892     8.0077 H       
  67 H67            0.6067    -2.9833     5.8706 H       
  68 H68            1.3164     2.3266    -2.5665 H       
  69 H69            0.5457     1.8634    -4.1027 H       
  70 H70            0.1458     3.4215    -3.3406 H       
@<TRIPOS>BOND
   1    1    2 ar
   2    1   10 ar
   3    2    3 ar
   4    2   39 1
   5    3    4 ar
   6    3   40 1
   7    4    5 ar
   8    4   41 1
   9    5    6 ar
  10    5   10 ar
  11    6    7 ar
  12    6   42 1
  13    7    8 ar
  14    7   43 1
  15    8    9 ar
  16    8   44 1
  17    9   10 ar
  18    9   11 1
  19   11   12 2
  20   11   13 2
  21   11   14 am
  22   14   15 1
  23   14   45 1
  24   15   16 ar
  25   15   20 ar
  26   16   17 ar
  27   16   38 1
  28   17   18 ar
  29   17   46 1
  30   18   19 ar
  31   18   21 1
  32   19   20 ar
  33   19   47 1
  34   20   48 1
  35   21   22 2
  36   21   23 am
  37   23   24 1
  38   23   28 1
  39   24   25 1
  40   24   49 1
  41   24   50 1
  42   25   26 1
  43   25   51 1
  44   25   52 1
  45   26   27 1
  46   26   29 1
  47   27   28 1
  48   27   53 1
  49   27   54 1
  50   28   55 1
  51   28   56 1
  52   29   30 1
  53   29   57 1
  54   29   58 1
  55   30   31 1
  56   30   59 1
  57   30   60 1
  58   31   32 1
  59   31   61 1
  60   31   62 1
  61   32   33 ar
  62   32   37 ar
  63   33   34 ar
  64   33   63 1
  65   34   35 ar
  66   34   64 1
  67   35   36 ar
  68   35   65 1
  69   36   37 ar
  70   36   66 1
  71   37   67 1
  72   38   68 1
  73   38   69 1
  74   38   70 1

#	End of record

