#	Name: ASD03430139
#	Creating user name:	WinNT
#	Creation time:	15. 06. 2019 20:40

#	Modifying user name:	WinNT
#	Modification time:	15. 06. 2019 20:40

#	Program:	/corina/corina34_cracker 3.40 0067  02.08.2006

@<TRIPOS>MOLECULE
ASD03430139
  32   34    0    0    0
SMALL
NO_CHARGES


@<TRIPOS>ATOM
   1 C1            -0.0188     1.5362     0.0105 C.3     
   2 C2             0.0021    -0.0041     0.0020 C.3     
   3 C3             1.2150    -0.2419    -0.9363 C.3     
   4 O4             2.1850     0.7035    -0.5208 O.3     
   5 C5             1.4987     1.8628    -0.0022 C.3     
   6 O6            -1.1261    -0.5962    -0.6517 O.3     
   7 P7            -1.0116    -2.1820    -1.0177 P.3     
   8 O8             0.5175    -2.4464    -1.4944 O.3     
   9 C9             1.6058    -1.7044    -0.8930 C.3     
  10 N10            1.7519     3.0188    -0.8658 N.am    
  11 C11            1.5178     2.9306    -2.1880 C.2     
  12 N12            1.7392     3.9659    -2.9961 N.2     
  13 C13            2.1978     5.1143    -2.5155 C.2     
  14 C14            2.4533     5.2394    -1.1345 C.2     
  15 C15            2.2180     4.1796    -0.3252 C.2     
  16 N16            2.4231     6.1767    -3.3598 N.pl3   
  17 O17           -1.3439    -3.0718     0.2823 O.3     
  18 O18           -1.9479    -2.5167    -2.1138 O.2     
  19 O19           -0.6410     2.0345     1.1965 O.3     
  20 O20            1.0963     1.8851    -2.6542 O.2     
  21 H21           -0.5106     1.9259    -0.8808 H       
  22 H22            0.1644    -0.4151     0.9984 H       
  23 H23            0.9127    -0.0026    -1.9559 H       
  24 H24            1.8408     2.0733     1.0111 H       
  25 H25            2.5228    -1.8620    -1.4609 H       
  26 H26            1.7470    -2.0218     0.1401 H       
  27 H27            2.8268     6.1676    -0.7279 H       
  28 H28            2.4014     4.2522     0.7366 H       
  29 H29            2.2467     6.0875    -4.3094 H       
  30 H30            2.7584     7.0151    -3.0055 H       
  31 H31           -1.2929    -4.0253     0.1298 H       
  32 H32           -0.6771     2.9995     1.2460 H       
@<TRIPOS>BOND
   1    1    2 1
   2    1    5 1
   3    1   19 1
   4    1   21 1
   5    2    3 1
   6    2    6 1
   7    2   22 1
   8    3    4 1
   9    3    9 1
  10    3   23 1
  11    4    5 1
  12    5   10 1
  13    5   24 1
  14    6    7 1
  15    7    8 1
  16    7   17 1
  17    7   18 2
  18    8    9 1
  19    9   25 1
  20    9   26 1
  21   10   11 am
  22   10   15 1
  23   11   12 1
  24   11   20 2
  25   12   13 2
  26   13   14 1
  27   13   16 1
  28   14   15 2
  29   14   27 1
  30   15   28 1
  31   16   29 1
  32   16   30 1
  33   17   31 1
  34   19   32 1

#	End of record

