#	Name: ASD03240044
#	Creating user name:	WinNT
#	Creation time:	15. 06. 2019 20:34

#	Modifying user name:	WinNT
#	Modification time:	15. 06. 2019 20:34

#	Program:	/corina/corina34_cracker 3.40 0067  02.08.2006

@<TRIPOS>MOLECULE
ASD03240044
  64   69    0    0    0
SMALL
NO_CHARGES


@<TRIPOS>ATOM
   1 C1            -0.0169     1.3936     0.0097 C.ar    
   2 C2             0.0021    -0.0041     0.0020 C.ar    
   3 C3             1.1958     2.0928     0.0019 C.ar    
   4 C4             2.3796     1.3597    -0.0134 C.ar    
   5 C5             2.3112    -0.0440    -0.0202 C.ar    
   6 N6             1.1389    -0.6651    -0.0124 N.ar    
   7 C7             3.5609    -0.8383    -0.0364 C.ar    
   8 C8             3.6921     2.0494    -0.0227 C.ar    
   9 C9             3.9419     3.0656    -0.9436 C.ar    
  10 C10            5.1654     3.7040    -0.9477 C.ar    
  11 C11            6.1430     3.3370    -0.0404 C.ar    
  12 C12            5.9008     2.3293     0.8758 C.ar    
  13 C13            4.6788     1.6881     0.8932 C.ar    
  14 C14            3.6284    -2.0516     0.6484 C.ar    
  15 C15            4.7957    -2.7871     0.6296 C.ar    
  16 C16            5.8978    -2.3232    -0.0663 C.ar    
  17 C17            5.8372    -1.1203    -0.7471 C.ar    
  18 C18            4.6735    -0.3789    -0.7413 C.ar    
  19 C19            7.1697    -3.1312    -0.0823 C.3     
  20 N20            7.1466    -4.0582    -1.2217 N.3     
  21 C21            8.4578    -4.6916    -1.4115 C.3     
  22 C22            8.4383    -5.5353    -2.6881 C.3     
  23 C23            7.3469    -6.6030    -2.5718 C.3     
  24 C24            5.9990    -5.9192    -2.3263 C.3     
  25 C25            6.0893    -5.0644    -1.0601 C.3     
  26 N26            7.2844    -7.3765    -3.8143 N.am    
  27 C27            7.4864    -8.7498    -3.9307 C.ar    
  28 C28            7.3346    -9.0669    -5.2819 C.ar    
  29 N29            7.0450    -7.8766    -5.9448 N.am    
  30 C30            7.0160    -6.8822    -5.0376 C.2     
  31 C31            7.7828    -9.7489    -3.0159 C.ar    
  32 C32            7.9266   -11.0535    -3.4455 C.ar    
  33 C33            7.7761   -11.3680    -4.7853 C.ar    
  34 C34            7.4809   -10.3797    -5.7037 C.ar    
  35 O35            6.7901    -5.7127    -5.2867 O.2     
  36 C36           -1.2616     2.1015     0.0195 C.1     
  37 N37           -2.2491     2.6630     0.0272 N.1     
  38 H38           -0.9304    -0.5490     0.0084 H       
  39 H39            1.2128     3.1727     0.0072 H       
  40 H40            3.1796     3.3524    -1.6529 H       
  41 H41            5.3601     4.4914    -1.6607 H       
  42 H42            7.0993     3.8389    -0.0477 H       
  43 H43            6.6679     2.0467     1.5815 H       
  44 H44            4.4906     0.9018     1.6092 H       
  45 H45            2.7689    -2.4145     1.1925 H       
  46 H46            4.8492    -3.7267     1.1594 H       
  47 H47            6.7011    -0.7631    -1.2879 H       
  48 H48            4.6274     0.5599    -1.2732 H       
  49 H49            8.0245    -2.4614    -0.1761 H       
  50 H50            7.2521    -3.6977     0.8453 H       
  51 H51            9.2243    -3.9213    -1.4969 H       
  52 H52            8.6794    -5.3309    -0.5569 H       
  53 H53            8.2304    -4.8943    -3.5448 H       
  54 H54            9.4067    -6.0177    -2.8203 H       
  55 H55            7.5751    -7.2679    -1.7388 H       
  56 H56            5.7528    -5.2842    -3.1773 H       
  57 H57            5.2247    -6.6760    -2.2000 H       
  58 H58            6.3220    -5.7020    -0.2073 H       
  59 H59            5.1355    -4.5649    -0.8904 H       
  60 H60            6.8873    -7.7810    -6.8971 H       
  61 H61            7.9013    -9.5072    -1.9700 H       
  62 H62            8.1578   -11.8317    -2.7332 H       
  63 H63            7.8900   -12.3905    -5.1136 H       
  64 H64            7.3638   -10.6289    -6.7480 H       
@<TRIPOS>BOND
   1    1    2 ar
   2    1    3 ar
   3    1   36 1
   4    2    6 ar
   5    2   38 1
   6    3    4 ar
   7    3   39 1
   8    4    5 ar
   9    4    8 1
  10    5    6 ar
  11    5    7 1
  12    7   14 ar
  13    7   18 ar
  14    8    9 ar
  15    8   13 ar
  16    9   10 ar
  17    9   40 1
  18   10   11 ar
  19   10   41 1
  20   11   12 ar
  21   11   42 1
  22   12   13 ar
  23   12   43 1
  24   13   44 1
  25   14   15 ar
  26   14   45 1
  27   15   16 ar
  28   15   46 1
  29   16   17 ar
  30   16   19 1
  31   17   18 ar
  32   17   47 1
  33   18   48 1
  34   19   20 1
  35   19   49 1
  36   19   50 1
  37   20   21 1
  38   20   25 1
  39   21   22 1
  40   21   51 1
  41   21   52 1
  42   22   23 1
  43   22   53 1
  44   22   54 1
  45   23   24 1
  46   23   26 1
  47   23   55 1
  48   24   25 1
  49   24   56 1
  50   24   57 1
  51   25   58 1
  52   25   59 1
  53   26   27 1
  54   26   30 am
  55   27   28 ar
  56   27   31 ar
  57   28   29 1
  58   28   34 ar
  59   29   30 am
  60   29   60 1
  61   30   35 2
  62   31   32 ar
  63   31   61 1
  64   32   33 ar
  65   32   62 1
  66   33   34 ar
  67   33   63 1
  68   34   64 1
  69   36   37 3

#	End of record

