#	Name: ASD02500087
#	Creating user name:	WinNT
#	Creation time:	15. 06. 2019 20:22

#	Modifying user name:	WinNT
#	Modification time:	15. 06. 2019 20:22

#	Program:	/corina/corina34_cracker 3.40 0067  02.08.2006

@<TRIPOS>MOLECULE
ASD02500087
  57   60    0    0    0
SMALL
NO_CHARGES


@<TRIPOS>ATOM
   1 C1            -1.0409     0.1203     2.4793 C.ar    
   2 C2            -0.5678     0.1868     3.7785 C.ar    
   3 C3             0.5262    -0.5734     4.1561 C.ar    
   4 C4             1.1458    -1.3983     3.2365 C.ar    
   5 C5             0.6743    -1.4655     1.9390 C.ar    
   6 C6            -0.4196    -0.7063     1.5591 C.ar    
   7 S7            -2.4374     1.0815     1.9992 S.o2    
   8 O8            -2.9487     0.4832     0.8161 O.2     
   9 O9            -3.2159     1.2721     3.1727 O.2     
  10 N10           -1.8763     2.5770     1.5622 N.am    
  11 C11           -1.2791     3.3999     2.5106 C.ar    
  12 C12           -0.0817     4.0456     2.2147 C.ar    
  13 C13            0.5119     4.8606     3.1511 C.ar    
  14 C14           -0.0887     5.0399     4.4007 C.ar    
  15 C15           -1.2910     4.3901     4.6949 C.ar    
  16 C16           -1.8825     3.5808     3.7521 C.ar    
  17 C17            0.5453     5.9125     5.4071 C.2     
  18 O18           -0.1391     6.6502     6.0898 O.2     
  19 N19            1.8830     5.8922     5.5699 N.am    
  20 C20            2.5267     6.6832     6.6298 C.3     
  21 C21            3.4546     5.7622     7.4291 C.3     
  22 N22            4.3798     5.0867     6.5095 N.3     
  23 C23            3.6576     4.2206     5.5680 C.3     
  24 C24            2.7374     5.0736     4.6963 C.3     
  25 C25            5.3487     4.3634     7.2143 C.ar    
  26 C26            6.2894     5.0324     7.9951 C.ar    
  27 C27            7.2454     4.3117     8.6906 C.ar    
  28 C28            7.2658     2.9309     8.6094 C.ar    
  29 C29            6.3335     2.2666     7.8349 C.ar    
  30 C30            5.3718     2.9786     7.1422 C.ar    
  31 O31            6.2687     6.3901     8.0733 O.3     
  32 C32            7.2632     7.0079     8.8926 C.3     
  33 F33           -0.8805    -0.7725     0.2909 F       
  34 F34           -1.1730     0.9934     4.6775 F       
  35 H35            0.8957    -0.5213     5.1696 H       
  36 H36            1.9993    -1.9905     3.5318 H       
  37 H37            1.1595    -2.1102     1.2211 H       
  38 H38           -1.9644     2.8789     0.6446 H       
  39 H39            0.3819     3.9064     1.2492 H       
  40 H40            1.4409     5.3610     2.9211 H       
  41 H41           -1.7571     4.5263     5.6595 H       
  42 H42           -2.8138     3.0823     3.9770 H       
  43 H43            3.1076     7.4900     6.1829 H       
  44 H44            1.7654     7.0986     7.2901 H       
  45 H45            4.0227     6.3530     8.1476 H       
  46 H46            2.8602     5.0178     7.9589 H       
  47 H47            4.3730     3.6934     4.9368 H       
  48 H48            3.0603     3.4977     6.1237 H       
  49 H49            2.1155     4.4254     4.0790 H       
  50 H50            3.3390     5.7227     4.0600 H       
  51 H51            7.9755     4.8277     9.2964 H       
  52 H52            8.0125     2.3705     9.1524 H       
  53 H53            6.3538     1.1885     7.7740 H       
  54 H54            4.6417     2.4567     6.5413 H       
  55 H55            8.2539     6.7513     8.5173 H       
  56 H56            7.1342     8.0900     8.8671 H       
  57 H57            7.1603     6.6538     9.9184 H       
@<TRIPOS>BOND
   1    1    2 ar
   2    1    6 ar
   3    1    7 1
   4    2    3 ar
   5    2   34 1
   6    3    4 ar
   7    3   35 1
   8    4    5 ar
   9    4   36 1
  10    5    6 ar
  11    5   37 1
  12    6   33 1
  13    7    8 2
  14    7    9 2
  15    7   10 am
  16   10   11 1
  17   10   38 1
  18   11   12 ar
  19   11   16 ar
  20   12   13 ar
  21   12   39 1
  22   13   14 ar
  23   13   40 1
  24   14   15 ar
  25   14   17 1
  26   15   16 ar
  27   15   41 1
  28   16   42 1
  29   17   18 2
  30   17   19 am
  31   19   20 1
  32   19   24 1
  33   20   21 1
  34   20   43 1
  35   20   44 1
  36   21   22 1
  37   21   45 1
  38   21   46 1
  39   22   23 1
  40   22   25 1
  41   23   24 1
  42   23   47 1
  43   23   48 1
  44   24   49 1
  45   24   50 1
  46   25   26 ar
  47   25   30 ar
  48   26   27 ar
  49   26   31 1
  50   27   28 ar
  51   27   51 1
  52   28   29 ar
  53   28   52 1
  54   29   30 ar
  55   29   53 1
  56   30   54 1
  57   31   32 1
  58   32   55 1
  59   32   56 1
  60   32   57 1

#	End of record

