#	Name: ASD01150420
#	Creating user name:	WinNT
#	Creation time:	15. 06. 2019 19:04

#	Modifying user name:	WinNT
#	Modification time:	15. 06. 2019 19:04

#	Program:	/corina/corina34_cracker 3.40 0067  02.08.2006

@<TRIPOS>MOLECULE
ASD01150420
  48   50    0    0    0
SMALL
NO_CHARGES


@<TRIPOS>ATOM
   1 C1             2.0698     1.2053     0.9468 C.ar    
   2 C2             2.0528    -0.1510     0.6862 C.ar    
   3 C3             1.2124    -0.6606    -0.2852 C.ar    
   4 C4             0.3816     0.1903    -1.0031 C.ar    
   5 C5             0.3958     1.5533    -0.7436 C.ar    
   6 C6             1.2408     2.0620     0.2325 C.ar    
   7 N7             1.2578     3.4358     0.4975 N.am    
   8 C8             0.0974     4.0899     0.6803 C.2     
   9 N9             0.0768     5.4111     0.9370 N.am    
  10 C10            1.2328     6.1024     1.0149 C.2     
  11 C11            2.5056     5.3927     0.8164 C.2     
  12 N12            2.4831     4.1085     0.5743 N.2     
  13 O13            1.2225     7.2972     1.2458 O.2     
  14 C14           -1.2019     6.0990     1.1316 C.3     
  15 O15           -0.9512     3.4777     0.6122 O.2     
  16 C16           -1.5734     6.0652     2.5917 C.ar    
  17 C17           -1.1623     7.0820     3.4332 C.ar    
  18 C18           -1.5031     7.0509     4.7726 C.ar    
  19 C19           -2.2553     6.0034     5.2703 C.ar    
  20 C20           -2.6672     4.9871     4.4286 C.ar    
  21 C21           -2.3301     5.0204     3.0884 C.ar    
  22 N22           -0.4683    -0.3265    -1.9872 N.am    
  23 C23           -1.0412    -1.5345    -1.8162 C.2     
  24 O24           -0.7541    -2.2107    -0.8511 O.2     
  25 C25           -2.0383    -2.0450    -2.8242 C.3     
  26 O26            3.6864     6.0605     0.8885 O.3     
  27 C27            4.8770     5.2972     0.6836 C.3     
  28 C28           -2.6259     5.9691     6.7306 C.3     
  29 H29            2.7248     1.6000     1.7094 H       
  30 H30            2.6980    -0.8147     1.2427 H       
  31 H31            1.2018    -1.7216    -0.4868 H       
  32 H32           -0.2490     2.2170    -1.3007 H       
  33 H33           -1.1109     7.1346     0.8037 H       
  34 H34           -1.9755     5.5998     0.5482 H       
  35 H35           -0.5746     7.9004     3.0444 H       
  36 H36           -1.1813     7.8449     5.4302 H       
  37 H37           -3.2546     4.1686     4.8175 H       
  38 H38           -2.6519     4.2264     2.4308 H       
  39 H39           -0.6453     0.1846    -2.7924 H       
  40 H40           -1.5164    -2.6050    -3.6002 H       
  41 H41           -2.7567    -2.6966    -2.3268 H       
  42 H42           -2.5632    -1.2026    -3.2749 H       
  43 H43            5.7460     5.9498     0.7678 H       
  44 H44            4.9386     4.5112     1.4362 H       
  45 H45            4.8545     4.8485    -0.3095 H       
  46 H46           -3.5769     6.4814     6.8762 H       
  47 H47           -2.7173     4.9334     7.0580 H       
  48 H48           -1.8516     6.4675     7.3138 H       
@<TRIPOS>BOND
   1    1    2 ar
   2    1    6 ar
   3    1   29 1
   4    2    3 ar
   5    2   30 1
   6    3    4 ar
   7    3   31 1
   8    4    5 ar
   9    4   22 1
  10    5    6 ar
  11    5   32 1
  12    6    7 1
  13    7    8 am
  14    7   12 1
  15    8    9 am
  16    8   15 2
  17    9   10 am
  18    9   14 1
  19   10   11 1
  20   10   13 2
  21   11   12 2
  22   11   26 1
  23   14   16 1
  24   14   33 1
  25   14   34 1
  26   16   17 ar
  27   16   21 ar
  28   17   18 ar
  29   17   35 1
  30   18   19 ar
  31   18   36 1
  32   19   20 ar
  33   19   28 1
  34   20   21 ar
  35   20   37 1
  36   21   38 1
  37   22   23 am
  38   22   39 1
  39   23   24 2
  40   23   25 1
  41   25   40 1
  42   25   41 1
  43   25   42 1
  44   26   27 1
  45   27   43 1
  46   27   44 1
  47   27   45 1
  48   28   46 1
  49   28   47 1
  50   28   48 1

#	End of record

