#	Name: ASD01900912
#	Creating user name:	WinNT
#	Creation time:	15. 06. 2019 19:52

#	Modifying user name:	WinNT
#	Modification time:	15. 06. 2019 19:52

#	Program:	/corina/corina34_cracker 3.40 0067  02.08.2006

@<TRIPOS>MOLECULE
ASD01900912
  46   48    0    0    0
SMALL
NO_CHARGES


@<TRIPOS>ATOM
   1 C1             0.2001     1.6473     0.2233 C.ar    
   2 C2             0.3322     0.2710     0.0501 C.ar    
   3 C3             1.5880    -0.3040     0.1621 C.ar    
   4 C4             2.6688     0.5174     0.4436 C.ar    
   5 C5             2.4641     1.8784     0.6036 C.ar    
   6 N6             1.2611     2.3983     0.4920 N.ar    
   7 C7            -1.1342     2.2782     0.1007 C.2     
   8 O8            -2.1082     1.5961    -0.1500 O.2     
   9 N9            -1.2683     3.6089     0.2672 N.am    
  10 S10           -2.8338     5.8708     0.3381 S.3     
  11 C11           -2.5195     4.2006     0.1523 C.2     
  12 N12           -3.6191     3.5668    -0.1123 N.2     
  13 C13           -4.7217     4.2884    -0.1860 C.2     
  14 C14           -4.5455     5.5941     0.0265 C.2     
  15 S15           -5.8049     6.8262    -0.0001 S.o2    
  16 O16           -6.9621     6.1547     0.4788 O.2     
  17 O17           -5.2425     7.9176     0.7153 O.2     
  18 C18           -5.9922     7.2442    -1.7553 C.3     
  19 C19           -7.0549     8.3016    -1.9092 C.ar    
  20 C20           -6.7103     9.6395    -1.8654 C.ar    
  21 C21           -7.6851    10.6094    -2.0065 C.ar    
  22 C22           -9.0046    10.2412    -2.1919 C.ar    
  23 C23           -9.3491     8.9033    -2.2366 C.ar    
  24 C24           -8.3736     7.9334    -2.0998 C.ar    
  25 C25          -10.0675    11.2985    -2.3448 C.3     
  26 C26           -6.0704     3.6868    -0.4862 C.3     
  27 C27           -6.6920     3.1573     0.8077 C.3     
  28 H28           -0.5320    -0.3389    -0.1681 H       
  29 H29            1.7217    -1.3680     0.0334 H       
  30 H30            3.6606     0.1004     0.5377 H       
  31 H31            3.3038     2.5211     0.8229 H       
  32 H32           -0.4909     4.1534     0.4674 H       
  33 H33           -5.0455     7.6217    -2.1419 H       
  34 H34           -6.2827     6.3533    -2.3120 H       
  35 H35           -5.6794     9.9271    -1.7205 H       
  36 H36           -7.4159    11.6547    -1.9715 H       
  37 H37          -10.3801     8.6156    -2.3811 H       
  38 H38           -8.6423     6.8881    -2.1385 H       
  39 H39          -10.1801    11.5508    -3.3992 H       
  40 H40          -11.0141    10.9206    -1.9586 H       
  41 H41           -9.7771    12.1890    -1.7871 H       
  42 H42           -6.7204     4.4486    -0.9164 H       
  43 H43           -5.9529     2.8670    -1.1949 H       
  44 H44           -6.0420     2.3955     1.2379 H       
  45 H45           -6.8095     3.9771     1.5163 H       
  46 H46           -7.6675     2.7222     0.5905 H       
@<TRIPOS>BOND
   1    1    2 ar
   2    1    6 ar
   3    1    7 1
   4    2    3 ar
   5    2   28 1
   6    3    4 ar
   7    3   29 1
   8    4    5 ar
   9    4   30 1
  10    5    6 ar
  11    5   31 1
  12    7    8 2
  13    7    9 am
  14    9   11 1
  15    9   32 1
  16   10   11 1
  17   10   14 1
  18   11   12 2
  19   12   13 1
  20   13   14 2
  21   13   26 1
  22   14   15 1
  23   15   16 2
  24   15   17 2
  25   15   18 1
  26   18   19 1
  27   18   33 1
  28   18   34 1
  29   19   20 ar
  30   19   24 ar
  31   20   21 ar
  32   20   35 1
  33   21   22 ar
  34   21   36 1
  35   22   23 ar
  36   22   25 1
  37   23   24 ar
  38   23   37 1
  39   24   38 1
  40   25   39 1
  41   25   40 1
  42   25   41 1
  43   26   27 1
  44   26   42 1
  45   26   43 1
  46   27   44 1
  47   27   45 1
  48   27   46 1

#	End of record

