#	Name: ASD03430852
#	Creating user name:	WinNT
#	Creation time:	15. 06. 2019 20:41

#	Modifying user name:	WinNT
#	Modification time:	15. 06. 2019 20:41

#	Program:	/corina/corina34_cracker 3.40 0067  02.08.2006

@<TRIPOS>MOLECULE
ASD03430852
  46   51    0    0    0
SMALL
NO_CHARGES


@<TRIPOS>ATOM
   1 O1            -0.0164     1.3590     0.0095 O.3     
   2 C2             0.0021    -0.0041     0.0020 C.ar    
   3 C3             1.2391    -0.4919    -0.4102 C.ar    
   4 C4             2.1048     0.7109    -0.6765 C.3     
   5 C5             1.3361     1.8545    -0.0007 C.3     
   6 O6             0.4701    -4.1150    -0.2055 O.3     
   7 C7             0.4609    -2.7533    -0.1793 C.ar    
   8 C8            -0.7677    -2.2655     0.2458 C.ar    
   9 C9            -1.6437    -3.4681     0.5416 C.3     
  10 C10           -0.6043    -4.6118     0.6105 C.3     
  11 C11            1.4666    -1.8460    -0.5024 C.ar    
  12 C12           -0.9994    -0.9120     0.3337 C.ar    
  13 N13            4.3422     0.6977    -1.1434 N.am    
  14 C14            3.4869     0.5548    -0.1112 C.2     
  15 C15            2.3004     0.9569    -2.1432 C.ar    
  16 C16            1.4378     1.1753    -3.1942 C.ar    
  17 C17            1.9360     1.3746    -4.4694 C.ar    
  18 C18            3.3019     1.3542    -4.6855 C.ar    
  19 C19            4.1699     1.1361    -3.6360 C.ar    
  20 C20            3.6773     0.9344    -2.3490 C.ar    
  21 O21            3.7771     0.3422     1.0471 O.2     
  22 C22            5.7993     0.6153    -1.0156 C.3     
  23 C23            6.2410    -0.8118    -1.2140 C.ar    
  24 C24            6.6552    -1.2311    -2.4644 C.ar    
  25 C25            7.0600    -2.5458    -2.6361 C.ar    
  26 C26            7.0329    -3.3934    -1.5390 C.ar    
  27 C27            6.6064    -2.9030    -0.3195 C.ar    
  28 N28            6.2330    -1.6446    -0.1918 N.ar    
  29 H29            1.4085     2.7697    -0.5883 H       
  30 H30            1.6968     2.0160     1.0151 H       
  31 H31           -2.1574    -3.3506     1.4957 H       
  32 H32           -2.3571    -3.6382    -0.2648 H       
  33 H33           -1.0136    -5.5313     0.1921 H       
  34 H34           -0.2697    -4.7683     1.6360 H       
  35 H35            2.4310    -2.2072    -0.8278 H       
  36 H36           -1.9633    -0.5522     0.6621 H       
  37 H37            0.3716     1.1905    -3.0230 H       
  38 H38            1.2600     1.5454    -5.2941 H       
  39 H39            3.6908     1.5094    -5.6811 H       
  40 H40            5.2352     1.1217    -3.8129 H       
  41 H41            6.2666     1.2485    -1.7697 H       
  42 H42            6.0966     0.9529    -0.0227 H       
  43 H43            6.6630    -0.5433    -3.2970 H       
  44 H44            7.3883    -2.9015    -3.6016 H       
  45 H45            7.3410    -4.4240    -1.6364 H       
  46 H46            6.5824    -3.5568     0.5398 H       
@<TRIPOS>BOND
   1    1    2 1
   2    1    5 1
   3    2    3 ar
   4    2   12 ar
   5    3    4 1
   6    3   11 ar
   7    4    5 1
   8    4   14 1
   9    4   15 1
  10    5   29 1
  11    5   30 1
  12    6    7 1
  13    6   10 1
  14    7    8 ar
  15    7   11 ar
  16    8    9 1
  17    8   12 ar
  18    9   10 1
  19    9   31 1
  20    9   32 1
  21   10   33 1
  22   10   34 1
  23   11   35 1
  24   12   36 1
  25   13   14 am
  26   13   20 1
  27   13   22 1
  28   14   21 2
  29   15   16 ar
  30   15   20 ar
  31   16   17 ar
  32   16   37 1
  33   17   18 ar
  34   17   38 1
  35   18   19 ar
  36   18   39 1
  37   19   20 ar
  38   19   40 1
  39   22   23 1
  40   22   41 1
  41   22   42 1
  42   23   24 ar
  43   23   28 ar
  44   24   25 ar
  45   24   43 1
  46   25   26 ar
  47   25   44 1
  48   26   27 ar
  49   26   45 1
  50   27   28 ar
  51   27   46 1

#	End of record

