#	Name: ASD01900284
#	Creating user name:	WinNT
#	Creation time:	15. 06. 2019 19:51

#	Modifying user name:	WinNT
#	Modification time:	15. 06. 2019 19:51

#	Program:	/corina/corina34_cracker 3.40 0067  02.08.2006

@<TRIPOS>MOLECULE
ASD01900284
  39   41    0    0    0
SMALL
NO_CHARGES


@<TRIPOS>ATOM
   1 C1            -0.0168     1.3894     0.0097 C.ar    
   2 C2             0.0021    -0.0041     0.0020 C.ar    
   3 C3             1.2216    -0.6606    -0.0131 C.ar    
   4 C4             2.3825     0.0997    -0.0201 C.ar    
   5 C5             2.2884     1.4836    -0.0118 C.ar    
   6 N6             1.1167     2.0803     0.0026 N.ar    
   7 C7            -1.3128     2.1057     0.0197 C.2     
   8 O8            -2.3539     1.4784     0.0212 O.2     
   9 N9            -1.3379     3.4532     0.0271 N.am    
  10 N10           -4.0873     5.7288     0.0520 N.am    
  11 C11           -2.7433     5.4756     0.0447 C.2     
  12 C12           -2.5686     4.1335     0.0366 C.2     
  13 C13           -3.8518     3.5427     0.0390 C.2     
  14 C14           -4.7573     4.5416     0.0484 C.2     
  15 S15           -4.7857     7.2302     0.0695 S.o2    
  16 O16           -6.0530     7.0202     0.6771 O.2     
  17 O17           -3.8098     8.0636     0.6797 O.2     
  18 C18           -4.9827     7.6583    -1.6822 C.3     
  19 C19           -5.6163     9.0207    -1.7983 C.ar    
  20 C20           -4.8207    10.1517    -1.8503 C.ar    
  21 C21           -5.4030    11.4019    -1.9573 C.ar    
  22 C22           -6.7792    11.5207    -2.0122 C.ar    
  23 C23           -7.5733    10.3907    -1.9597 C.ar    
  24 C24           -6.9917     9.1404    -1.8585 C.ar    
  25 Cl25          -3.0926    10.0017    -1.7807 Cl      
  26 Cl26           3.9368    -0.6733    -0.0385 Cl      
  27 H27           -0.9213    -0.5642     0.0082 H       
  28 H28            1.2680    -1.7396    -0.0190 H       
  29 H29            3.1894     2.0790    -0.0168 H       
  30 H30           -0.5070     3.9538     0.0259 H       
  31 H31           -1.9582     6.2172     0.0451 H       
  32 H32           -4.0679     2.4846     0.0338 H       
  33 H33           -5.8306     4.4217     0.0524 H       
  34 H34           -4.0058     7.6695    -2.1656 H       
  35 H35           -5.6197     6.9188    -2.1675 H       
  36 H36           -4.7826    12.2850    -1.9975 H       
  37 H37           -7.2339    12.4967    -2.0957 H       
  38 H38           -8.6484    10.4840    -2.0019 H       
  39 H39           -7.6126     8.2574    -1.8221 H       
@<TRIPOS>BOND
   1    1    2 ar
   2    1    6 ar
   3    1    7 1
   4    2    3 ar
   5    2   27 1
   6    3    4 ar
   7    3   28 1
   8    4    5 ar
   9    4   26 1
  10    5    6 ar
  11    5   29 1
  12    7    8 2
  13    7    9 am
  14    9   12 1
  15    9   30 1
  16   10   11 1
  17   10   14 1
  18   10   15 am
  19   11   12 2
  20   11   31 1
  21   12   13 1
  22   13   14 2
  23   13   32 1
  24   14   33 1
  25   15   16 2
  26   15   17 2
  27   15   18 1
  28   18   19 1
  29   18   34 1
  30   18   35 1
  31   19   20 ar
  32   19   24 ar
  33   20   21 ar
  34   20   25 1
  35   21   22 ar
  36   21   36 1
  37   22   23 ar
  38   22   37 1
  39   23   24 ar
  40   23   38 1
  41   24   39 1

#	End of record

