#	Name: ASD01411070
#	Creating user name:	WinNT
#	Creation time:	15. 06. 2019 19:19

#	Modifying user name:	WinNT
#	Modification time:	15. 06. 2019 19:19

#	Program:	/corina/corina34_cracker 3.40 0067  02.08.2006

@<TRIPOS>MOLECULE
ASD01411070
  50   54    0    0    0
SMALL
NO_CHARGES


@<TRIPOS>ATOM
   1 C1             1.0943     1.3838     1.1969 C.ar    
   2 C2             1.1103     0.0029     1.1873 C.ar    
   3 C3             1.1769     2.0866     0.0020 C.ar    
   4 C4             1.2085    -0.6808    -0.0106 C.ar    
   5 C5             1.2755     1.3986    -1.1994 C.ar    
   6 N6             1.1604     3.4878     0.0092 N.am    
   7 C7             1.2911     0.0162    -1.2032 C.ar    
   8 C8            -0.0218     4.1359    -0.0735 C.2     
   9 C9             2.3194     4.1585     0.1038 C.2     
  10 Cl10           1.4142    -0.8459    -2.7050 Cl      
  11 C11           -0.0125     5.6096    -0.0654 C.ar    
  12 O12           -1.0668     3.5193    -0.1530 O.2     
  13 N13            2.3839     5.5006     0.1178 N.am    
  14 O14            3.3542     3.5250     0.1804 O.2     
  15 C15            1.2253     6.2644     0.0285 C.ar    
  16 C16           -1.1892     6.3524    -0.1474 C.ar    
  17 C17            1.2726     7.6558     0.0375 C.ar    
  18 C18           -1.1274     7.7303    -0.1358 C.ar    
  19 C19            0.0932     8.3802    -0.0445 C.ar    
  20 C20            3.6811     6.1780     0.2283 C.3     
  21 N21            2.4995     8.3209     0.1271 N.3     
  22 C22            3.4729     7.5366     0.9046 C.3     
  23 C23            2.3306     9.6613     0.7041 C.3     
  24 C24            3.6834    10.2495     1.0125 C.ar    
  25 C25            4.3454    10.9971     0.0551 C.ar    
  26 C26            5.5882    11.5405     0.3297 C.ar    
  27 C27            6.1750    11.3401     1.5617 C.ar    
  28 C28            5.5121    10.5868     2.5330 C.ar    
  29 C29            4.2563    10.0459     2.2510 C.ar    
  30 C30            6.1344    10.3679     3.8547 C.2     
  31 O31            5.5554     9.7122     4.6976 O.2     
  32 O32            7.3440    10.8954     4.1254 O.3     
  33 H33            1.0131     1.9167     2.1327 H       
  34 H34            1.0464    -0.5437     2.1166 H       
  35 H35            1.2212    -1.7607    -0.0154 H       
  36 H36            1.3395     1.9426    -2.1303 H       
  37 H37           -2.1436     5.8520    -0.2200 H       
  38 H38           -2.0380     8.3076    -0.1991 H       
  39 H39            0.1259     9.4596    -0.0364 H       
  40 H40            4.3599     5.5717     0.8281 H       
  41 H41            4.1021     6.3257    -0.7662 H       
  42 H42            3.0972     7.3919     1.9175 H       
  43 H43            4.4229     8.0698     0.9415 H       
  44 H44            1.8103    10.3009    -0.0088 H       
  45 H45            1.7472     9.5908     1.6221 H       
  46 H46            3.8905    11.1572    -0.9112 H       
  47 H47            6.0999    12.1226    -0.4224 H       
  48 H48            7.1450    11.7644     1.7747 H       
  49 H49            3.7381     9.4626     2.9977 H       
  50 H50            7.7107    10.7252     5.0038 H       
@<TRIPOS>BOND
   1    1    2 ar
   2    1    3 ar
   3    1   33 1
   4    2    4 ar
   5    2   34 1
   6    3    5 ar
   7    3    6 1
   8    4    7 ar
   9    4   35 1
  10    5    7 ar
  11    5   36 1
  12    6    9 am
  13    6    8 am
  14    7   10 1
  15    8   11 1
  16    8   12 2
  17    9   13 am
  18    9   14 2
  19   11   15 ar
  20   11   16 ar
  21   13   20 1
  22   13   15 1
  23   15   17 ar
  24   16   18 ar
  25   16   37 1
  26   17   21 1
  27   17   19 ar
  28   18   19 ar
  29   18   38 1
  30   19   39 1
  31   20   22 1
  32   20   40 1
  33   20   41 1
  34   21   22 1
  35   21   23 1
  36   22   42 1
  37   22   43 1
  38   23   24 1
  39   23   44 1
  40   23   45 1
  41   24   25 ar
  42   24   29 ar
  43   25   26 ar
  44   25   46 1
  45   26   27 ar
  46   26   47 1
  47   27   28 ar
  48   27   48 1
  49   28   29 ar
  50   28   30 1
  51   29   49 1
  52   30   31 2
  53   30   32 1
  54   32   50 1

#	End of record

