#	Name: ASD01910515
#	Creating user name:	WinNT
#	Creation time:	15. 06. 2019 19:56

#	Modifying user name:	WinNT
#	Modification time:	15. 06. 2019 19:56

#	Program:	/corina/corina34_cracker 3.40 0067  02.08.2006

@<TRIPOS>MOLECULE
ASD01910515
  41   44    0    0    0
SMALL
NO_CHARGES


@<TRIPOS>ATOM
   1 O1             0.0355     1.1049     0.1167 O.3     
   2 C2             0.0394    -0.2264    -0.0603 C.2     
   3 N3             1.3080    -0.5921    -0.1506 N.2     
   4 C4             2.0178     0.5391    -0.0237 C.2     
   5 N5             1.1758     1.5178     0.1340 N.2     
   6 C6            -1.1377    -1.1070    -0.1381 C.2     
   7 C7            -2.4588    -0.7205    -0.0433 C.2     
   8 C8            -3.2443    -1.8643    -0.1689 C.2     
   9 N9            -2.4585    -2.8987    -0.3319 N.2     
  10 N10           -1.1284    -2.4604    -0.3238 N.pl3   
  11 C11            3.9363     1.5723    -1.2114 C.3     
  12 C12            3.5199     0.6550    -0.0573 C.3     
  13 C13            4.0163     1.2467     1.2639 C.3     
  14 C14            5.5440     1.3344     1.2436 C.3     
  15 C15            5.9833     2.2594     0.1042 C.3     
  16 N16            5.3898     1.7785    -1.1508 N.am    
  17 C17            6.1639     1.5309    -2.2260 C.2     
  18 C18            7.6026     1.8644    -2.1928 C.ar    
  19 O19            5.6781     1.0332    -3.2231 O.2     
  20 C20            8.0301     3.0661    -1.6251 C.ar    
  21 C21            9.3740     3.3736    -1.5962 C.ar    
  22 C22           10.3011     2.4927    -2.1297 C.ar    
  23 C23            9.8825     1.2958    -2.6963 C.ar    
  24 C24            8.5402     0.9759    -2.7241 C.ar    
  25 F25           11.6164     2.7993    -2.0990 F       
  26 F26           10.7908     0.4410    -3.2154 F       
  27 H27           -2.8191     0.2872     0.1021 H       
  28 H28           -4.3234    -1.8929    -0.1365 H       
  29 H29           -0.3415    -3.0185    -0.4250 H       
  30 H30            3.6725     1.1072    -2.1613 H       
  31 H31            3.4269     2.5314    -1.1179 H       
  32 H32            3.9584    -0.3325    -0.2011 H       
  33 H33            3.5970     2.2443     1.3952 H       
  34 H34            3.7001     0.6086     2.0891 H       
  35 H35            5.8982     1.7341     2.1938 H       
  36 H36            5.9634     0.3404     1.0875 H       
  37 H37            5.6409     3.2745     0.3050 H       
  38 H38            7.0702     2.2476     0.0225 H       
  39 H39            7.3090     3.7543    -1.2094 H       
  40 H40            9.7047     4.3032    -1.1570 H       
  41 H41            8.2147     0.0450    -3.1644 H       
@<TRIPOS>BOND
   1    1    2 1
   2    1    5 1
   3    2    3 2
   4    2    6 1
   5    3    4 1
   6    4    5 2
   7    4   12 1
   8    6    7 2
   9    6   10 1
  10    7    8 1
  11    7   27 1
  12    8    9 2
  13    8   28 1
  14    9   10 1
  15   10   29 1
  16   11   12 1
  17   11   16 1
  18   11   30 1
  19   11   31 1
  20   12   13 1
  21   12   32 1
  22   13   14 1
  23   13   33 1
  24   13   34 1
  25   14   15 1
  26   14   35 1
  27   14   36 1
  28   15   16 1
  29   15   37 1
  30   15   38 1
  31   16   17 am
  32   17   18 1
  33   17   19 2
  34   18   20 ar
  35   18   24 ar
  36   20   21 ar
  37   20   39 1
  38   21   22 ar
  39   21   40 1
  40   22   23 ar
  41   22   25 1
  42   23   24 ar
  43   23   26 1
  44   24   41 1

#	End of record

