#	Name: ASD04930087
#	Creating user name:	WinNT
#	Creation time:	15. 06. 2019 20:56

#	Modifying user name:	WinNT
#	Modification time:	15. 06. 2019 20:56

#	Program:	/corina/corina34_cracker 3.40 0067  02.08.2006

@<TRIPOS>MOLECULE
ASD04930087
  60   61    0    0    0
SMALL
NO_CHARGES


@<TRIPOS>ATOM
   1 N1            -0.0179     1.3414    -0.0377 N.am    
   2 C2             0.0011    -0.0046    -0.0383 C.2     
   3 C3             1.2795    -0.7235    -0.0212 C.2     
   4 C4             2.4595    -0.0023    -0.0050 C.2     
   5 C5             2.4016     1.4120    -0.0054 C.ar    
   6 C6             3.5835     2.1691     0.0108 C.ar    
   7 C7             3.5176     3.5325     0.0103 C.ar    
   8 C8             2.2880     4.1801    -0.0061 C.ar    
   9 C9             1.1148     3.4588    -0.0218 C.ar    
  10 C10            1.1548     2.0665    -0.0216 C.ar    
  11 C11            1.3063    -2.1959    -0.0208 C.2     
  12 O12            2.3659    -2.7848    -0.1192 O.2     
  13 N13            0.1567    -2.8908     0.0887 N.am    
  14 N14            0.1689    -4.2872    -0.0232 N.am    
  15 O15           -1.0457    -0.6269    -0.0526 O.2     
  16 O16           -1.2593     2.0221    -0.0598 O.3     
  17 C17           -1.7927     2.3006     1.2363 C.3     
  18 C18           -3.1277     3.0338     1.0917 C.3     
  19 C19           -0.9807    -4.9821     0.0863 C.2     
  20 C20           -0.9676    -6.4843    -0.0340 C.3     
  21 C21           -2.3911    -7.0213     0.1271 C.3     
  22 C22           -2.3778    -8.5463     0.0049 C.3     
  23 C23           -3.8014    -9.0833     0.1660 C.3     
  24 C24           -3.7881   -10.6084     0.0438 C.3     
  25 C25           -5.2116   -11.1454     0.2049 C.3     
  26 C26           -5.1983   -12.6704     0.0828 C.3     
  27 C27           -6.6219   -13.2074     0.2438 C.3     
  28 C28           -6.6086   -14.7325     0.1217 C.3     
  29 O29           -2.0258    -4.3985     0.2816 O.2     
  30 Br30           5.1123     4.5485     0.0329 Br      
  31 H31            3.4120    -0.5112     0.0081 H       
  32 H32            4.5432     1.6738     0.0241 H       
  33 H33            2.2521     5.2595    -0.0063 H       
  34 H34            0.1647     3.9722    -0.0338 H       
  35 H35           -0.6791    -2.4240     0.2449 H       
  36 H36            1.0048    -4.7540    -0.1794 H       
  37 H37           -1.9483     1.3652     1.7739 H       
  38 H38           -1.0928     2.9260     1.7905 H       
  39 H39           -2.9721     3.9692     0.5542 H       
  40 H40           -3.8276     2.4084     0.5375 H       
  41 H41           -3.5345     3.2463     2.0804 H       
  42 H42           -0.5812    -6.7670    -1.0132 H       
  43 H43           -0.3302    -6.9055     0.7435 H       
  44 H44           -2.7775    -6.7386     1.1063 H       
  45 H45           -3.0285    -6.6001    -0.6504 H       
  46 H46           -1.9915    -8.8290    -0.9743 H       
  47 H47           -1.7405    -8.9675     0.7824 H       
  48 H48           -4.1877    -8.8006     1.1452 H       
  49 H49           -4.4387    -8.6621    -0.6115 H       
  50 H50           -3.4017   -10.8911    -0.9354 H       
  51 H51           -3.1507   -11.0296     0.8213 H       
  52 H52           -5.5980   -10.8627     1.1841 H       
  53 H53           -5.8490   -10.7242    -0.5726 H       
  54 H54           -4.8120   -12.9531    -0.8965 H       
  55 H55           -4.5610   -13.0916     0.8602 H       
  56 H56           -7.0082   -12.9247     1.2231 H       
  57 H57           -7.2592   -12.7862    -0.5337 H       
  58 H58           -6.2222   -15.0152    -0.8576 H       
  59 H59           -5.9712   -15.1537     0.8992 H       
  60 H60           -7.6227   -15.1151     0.2364 H       
@<TRIPOS>BOND
   1    1    2 am
   2    1   10 1
   3    1   16 1
   4    2    3 1
   5    2   15 2
   6    3    4 2
   7    3   11 1
   8    4    5 1
   9    4   31 1
  10    5    6 ar
  11    5   10 ar
  12    6    7 ar
  13    6   32 1
  14    7    8 ar
  15    7   30 1
  16    8    9 ar
  17    8   33 1
  18    9   10 ar
  19    9   34 1
  20   11   12 2
  21   11   13 am
  22   13   14 1
  23   13   35 1
  24   14   19 am
  25   14   36 1
  26   16   17 1
  27   17   18 1
  28   17   37 1
  29   17   38 1
  30   18   39 1
  31   18   40 1
  32   18   41 1
  33   19   20 1
  34   19   29 2
  35   20   21 1
  36   20   42 1
  37   20   43 1
  38   21   22 1
  39   21   44 1
  40   21   45 1
  41   22   23 1
  42   22   46 1
  43   22   47 1
  44   23   24 1
  45   23   48 1
  46   23   49 1
  47   24   25 1
  48   24   50 1
  49   24   51 1
  50   25   26 1
  51   25   52 1
  52   25   53 1
  53   26   27 1
  54   26   54 1
  55   26   55 1
  56   27   28 1
  57   27   56 1
  58   27   57 1
  59   28   58 1
  60   28   59 1
  61   28   60 1

#	End of record

