#	Name: ASD04590878
#	Creating user name:	WinNT
#	Creation time:	15. 06. 2019 20:51

#	Modifying user name:	WinNT
#	Modification time:	15. 06. 2019 20:51

#	Program:	/corina/corina34_cracker 3.40 0067  02.08.2006

@<TRIPOS>MOLECULE
ASD04590878
  57   62    0    0    0
SMALL
NO_CHARGES


@<TRIPOS>ATOM
   1 N1            -0.0171     1.3229    -0.0118 N.ar    
   2 C2             0.0017    -0.0035    -0.0051 C.ar    
   3 N3             1.1297    -0.6952    -0.0122 N.ar    
   4 C4             2.3048    -0.0728    -0.0266 C.ar    
   5 C5             2.3180     1.3354    -0.0340 C.ar    
   6 C6             1.1079     2.0199    -0.0261 C.ar    
   7 N7             3.6036    -0.5177    -0.0370 N.pl3   
   8 C8             4.4824     0.5537    -0.0512 C.ar    
   9 C9             3.7335     1.7403    -0.0500 C.ar    
  10 C10            5.8713     0.6252    -0.0659 C.ar    
  11 C11            6.4997     1.8521    -0.0787 C.ar    
  12 C12            5.7585     3.0235    -0.0775 C.ar    
  13 C13            4.3811     2.9731    -0.0635 C.ar    
  14 N14           -1.2025    -0.6889     0.0103 N.pl3   
  15 C15           -2.4023     0.0120     0.1313 C.ar    
  16 N16           -2.3785     1.3197     0.3319 N.ar    
  17 C17           -3.4885     2.0231     0.4522 C.ar    
  18 C18           -4.7293     1.4090     0.3721 C.ar    
  19 C19           -4.7939     0.0324     0.1614 C.ar    
  20 C20           -3.6099    -0.6707     0.0340 C.ar    
  21 N21           -5.9023     2.1620     0.5017 N.3     
  22 C22            4.0041    -1.9269    -0.0337 C.3     
  23 C23            3.4041    -2.6438     1.1935 C.3     
  24 C24            3.4411    -2.6379    -1.2768 C.3     
  25 C25            2.5188    -3.7620    -0.7617 C.3     
  26 C26            2.1054    -3.2945     0.6559 C.3     
  27 C27           -6.7108     1.6907     1.6470 C.3     
  28 C28           -8.1905     1.8680     1.2588 C.3     
  29 C29           -8.1654     2.4350    -0.1792 C.3     
  30 C30           -6.7681     2.0089    -0.6954 C.3     
  31 O31           -9.1985     1.8473    -0.9726 O.3     
  32 H32            1.0863     3.0996    -0.0315 H       
  33 H33            6.4581    -0.2815    -0.0670 H       
  34 H34            7.5785     1.9011    -0.0894 H       
  35 H35            6.2620     3.9789    -0.0876 H       
  36 H36            3.8058     3.8871    -0.0629 H       
  37 H37           -1.2111    -1.6561    -0.0630 H       
  38 H38           -3.4300     3.0891     0.6153 H       
  39 H39           -5.7464    -0.4723     0.0948 H       
  40 H40           -3.6229    -1.7380    -0.1303 H       
  41 H41            5.0911    -2.0058    -0.0186 H       
  42 H42            4.0892    -3.4074     1.5619 H       
  43 H43            3.1736    -1.9254     1.9801 H       
  44 H44            2.8700    -1.9344    -1.8826 H       
  45 H45            4.2549    -3.0626    -1.8646 H       
  46 H46            1.6420    -3.8596    -1.4020 H       
  47 H47            3.0608    -4.7062    -0.7091 H       
  48 H48            1.8149    -4.1444     1.2735 H       
  49 H49            1.3001    -2.5619     0.6016 H       
  50 H50           -6.5014     0.6389     1.8415 H       
  51 H51           -6.4850     2.2867     2.5313 H       
  52 H52           -8.7043     0.9069     1.2776 H       
  53 H53           -8.6772     2.5713     1.9344 H       
  54 H54           -8.2575     3.5210    -0.1672 H       
  55 H55           -6.4364     2.6688    -1.4970 H       
  56 H56           -6.7816     0.9717    -1.0303 H       
  57 H57          -10.0920     2.0196    -0.6453 H       
@<TRIPOS>BOND
   1    1    2 ar
   2    1    6 ar
   3    2    3 ar
   4    2   14 1
   5    3    4 ar
   6    4    5 ar
   7    4    7 1
   8    5    6 ar
   9    5    9 1
  10    6   32 1
  11    7    8 1
  12    7   22 1
  13    8    9 ar
  14    8   10 ar
  15    9   13 ar
  16   10   11 ar
  17   10   33 1
  18   11   12 ar
  19   11   34 1
  20   12   13 ar
  21   12   35 1
  22   13   36 1
  23   14   15 1
  24   14   37 1
  25   15   16 ar
  26   15   20 ar
  27   16   17 ar
  28   17   18 ar
  29   17   38 1
  30   18   19 ar
  31   18   21 1
  32   19   20 ar
  33   19   39 1
  34   20   40 1
  35   21   27 1
  36   21   30 1
  37   22   24 1
  38   22   23 1
  39   22   41 1
  40   23   26 1
  41   23   42 1
  42   23   43 1
  43   24   25 1
  44   24   44 1
  45   24   45 1
  46   25   26 1
  47   25   46 1
  48   25   47 1
  49   26   48 1
  50   26   49 1
  51   27   28 1
  52   27   50 1
  53   27   51 1
  54   28   29 1
  55   28   52 1
  56   28   53 1
  57   29   30 1
  58   29   31 1
  59   29   54 1
  60   30   55 1
  61   30   56 1
  62   31   57 1

#	End of record

