#	Name: ASD01814160
#	Creating user name:	WinNT
#	Creation time:	15. 06. 2019 19:31

#	Modifying user name:	WinNT
#	Modification time:	15. 06. 2019 19:31

#	Program:	/corina/corina34_cracker 3.40 0067  02.08.2006

@<TRIPOS>MOLECULE
ASD01814160
  34   36    0    0    0
SMALL
NO_CHARGES


@<TRIPOS>ATOM
   1 C1            -0.0077     1.3962     0.2353 C.2     
   2 C2             0.0114    -0.0051     0.2285 C.2     
   3 C3             1.2048    -0.6600     0.1394 C.2     
   4 C4             2.3949     0.0818     0.0559 C.2     
   5 N5             2.3469     1.4494     0.0650 N.am    
   6 C6             1.1483     2.0930     0.1541 C.2     
   7 C7             3.6227    -0.5889    -0.0356 C.2     
   8 C8             4.7847     0.1222    -0.1168 C.2     
   9 C9             4.7315     1.5284    -0.1077 C.2     
  10 C10            3.4815     2.1736    -0.0142 C.2     
  11 O11            3.4260     3.3917    -0.0060 O.2     
  12 C12            5.9641     2.3147    -0.1932 C.2     
  13 O13            5.9064     3.6624    -0.1839 O.3     
  14 O14            7.0399     1.7526    -0.2725 O.2     
  15 C15            3.6593    -2.0954    -0.0439 C.3     
  16 C16            4.1446    -2.5787    -1.3863 C.ar    
  17 N17            3.5270    -2.1847    -2.4826 N.ar    
  18 C18            3.9162    -2.5812    -3.6786 C.ar    
  19 C19            4.9962    -3.4328    -3.8246 C.ar    
  20 C20            5.6709    -3.8684    -2.6928 C.ar    
  21 C21            5.2353    -3.4252    -1.4539 C.ar    
  22 Cl22           5.5007    -3.9504    -5.4029 Cl      
  23 O23            4.5464    -2.5559     0.9773 O.3     
  24 H24           -0.9491     1.9213     0.3010 H       
  25 H25           -0.9116    -0.5622     0.2937 H       
  26 H26            1.2344    -1.7395     0.1335 H       
  27 H27            1.1218     3.1726     0.1604 H       
  28 H28            5.7339    -0.3883    -0.1868 H       
  29 H29            6.7462     4.1382    -0.2424 H       
  30 H30            2.6581    -2.4842     0.1420 H       
  31 H31            3.3853    -2.2372    -4.5541 H       
  32 H32            6.5175    -4.5339    -2.7757 H       
  33 H33            5.7369    -3.7436    -0.5520 H       
  34 H34            5.4573    -2.2478     0.8753 H       
@<TRIPOS>BOND
   1    1    2 1
   2    1    6 2
   3    1   24 1
   4    2    3 2
   5    2   25 1
   6    3    4 1
   7    3   26 1
   8    4    5 1
   9    4    7 2
  10    5    6 1
  11    5   10 am
  12    6   27 1
  13    7    8 1
  14    7   15 1
  15    8    9 2
  16    8   28 1
  17    9   10 1
  18    9   12 1
  19   10   11 2
  20   12   13 1
  21   12   14 2
  22   13   29 1
  23   15   16 1
  24   15   23 1
  25   15   30 1
  26   16   17 ar
  27   16   21 ar
  28   17   18 ar
  29   18   19 ar
  30   18   31 1
  31   19   20 ar
  32   19   22 1
  33   20   21 ar
  34   20   32 1
  35   21   33 1
  36   23   34 1

#	End of record

