#	Name: ASD01814419
#	Creating user name:	WinNT
#	Creation time:	15. 06. 2019 19:32

#	Modifying user name:	WinNT
#	Modification time:	15. 06. 2019 19:32

#	Program:	/corina/corina34_cracker 3.40 0067  02.08.2006

@<TRIPOS>MOLECULE
ASD01814419
  50   55    0    0    0
SMALL
NO_CHARGES


@<TRIPOS>ATOM
   1 C1            -0.0167     1.3819     0.0096 C.ar    
   2 C2             0.0021    -0.0041     0.0020 C.ar    
   3 C3             1.1970    -0.6936    -0.0131 C.ar    
   4 C4             2.3990     0.0034    -0.0208 C.ar    
   5 C5             2.3751     1.4118    -0.0130 C.ar    
   6 C6             1.1661     2.0940     0.0022 C.ar    
   7 N7             3.6102    -0.6578    -0.0354 N.pl3   
   8 N8             4.7455    -0.0612    -0.0426 N.2     
   9 C9             4.8827     1.2394    -0.0369 C.2     
  10 C10            3.6767     2.1036    -0.0217 C.2     
  11 C11            6.0121     2.1719    -0.0418 C.2     
  12 N12            5.4771     3.4116    -0.0301 N.am    
  13 N13            4.0818     3.3390    -0.0183 N.2     
  14 C14            3.5985    -2.1227    -0.0426 C.3     
  15 C15            3.5812    -2.6179    -1.4658 C.ar    
  16 C16            4.7716    -2.8541    -2.1287 C.ar    
  17 C17            4.7590    -3.3076    -3.4333 C.ar    
  18 C18            3.5495    -3.5266    -4.0789 C.ar    
  19 C19            2.3560    -3.2890    -3.4106 C.ar    
  20 C20            2.3751    -2.8406    -2.1043 C.ar    
  21 O21            7.1980     1.8859    -0.0537 O.2     
  22 C22            6.2178     4.6046    -0.0293 C.2     
  23 N23            3.5335    -3.9864    -5.4031 N.pl3   
  24 C24            2.4312    -4.2392    -6.1445 C.2     
  25 C25            2.8423    -4.6637    -7.3619 C.2     
  26 C26            4.2415    -4.6709    -7.3657 C.2     
  27 N27            4.6565    -4.2596    -6.1947 N.2     
  28 C28            5.7089     5.8578    -0.0178 C.2     
  29 N29            6.7779     6.7175    -0.0212 N.pl3   
  30 C30            7.8978     5.9638    -0.0347 C.2     
  31 N31            7.5584     4.7035    -0.0341 N.2     
  32 C32            6.7157     8.1811    -0.0119 C.3     
  33 H33           -0.9605     1.9069     0.0169 H       
  34 H34           -0.9294    -0.5505     0.0083 H       
  35 H35            1.1980    -1.7736    -0.0185 H       
  36 H36            1.1510     3.1739     0.0078 H       
  37 H37            4.4903    -2.4957     0.4611 H       
  38 H38            2.7105    -2.4816     0.4777 H       
  39 H39            5.7121    -2.6835    -1.6259 H       
  40 H40            5.6890    -3.4912    -3.9507 H       
  41 H41            1.4137    -3.4582    -3.9104 H       
  42 H42            1.4470    -2.6555    -1.5839 H       
  43 H43            1.4068    -4.1236    -5.8226 H       
  44 H44            2.2032    -4.9468    -8.1851 H       
  45 H45            4.8706    -4.9616    -8.1940 H       
  46 H46            4.6636     6.1291    -0.0077 H       
  47 H47            8.9094     6.3420    -0.0411 H       
  48 H48            6.7086     8.5380     1.0180 H       
  49 H49            7.5853     8.5850    -0.5304 H       
  50 H50            5.8070     8.5094    -0.5165 H       
@<TRIPOS>BOND
   1    1    2 ar
   2    1    6 ar
   3    1   33 1
   4    2    3 ar
   5    2   34 1
   6    3    4 ar
   7    3   35 1
   8    4    5 ar
   9    4    7 1
  10    5    6 ar
  11    5   10 1
  12    6   36 1
  13    7    8 1
  14    7   14 1
  15    8    9 2
  16    9   10 1
  17    9   11 1
  18   10   13 2
  19   11   12 am
  20   11   21 2
  21   12   13 1
  22   12   22 1
  23   14   15 1
  24   14   37 1
  25   14   38 1
  26   15   16 ar
  27   15   20 ar
  28   16   17 ar
  29   16   39 1
  30   17   18 ar
  31   17   40 1
  32   18   19 ar
  33   18   23 1
  34   19   20 ar
  35   19   41 1
  36   20   42 1
  37   22   28 2
  38   22   31 1
  39   23   24 1
  40   23   27 1
  41   24   25 2
  42   24   43 1
  43   25   26 1
  44   25   44 1
  45   26   27 2
  46   26   45 1
  47   28   29 1
  48   28   46 1
  49   29   30 1
  50   29   32 1
  51   30   31 2
  52   30   47 1
  53   32   48 1
  54   32   49 1
  55   32   50 1

#	End of record

