#	Name: ASD01918597
#	Creating user name:	WinNT
#	Creation time:	15. 06. 2019 20:11

#	Modifying user name:	WinNT
#	Modification time:	15. 06. 2019 20:11

#	Program:	/corina/corina34_cracker 3.40 0067  02.08.2006

@<TRIPOS>MOLECULE
ASD01918597
  37   40    0    0    0
SMALL
NO_CHARGES


@<TRIPOS>ATOM
   1 C1            -0.0184     1.5028     0.0103 C.3     
   2 C2             0.0021    -0.0041     0.0020 C.2     
   3 C3             0.0064    -0.7191    -1.1246 C.2     
   4 S4             0.0323    -2.4258    -0.6885 S.3     
   5 C5             0.0349    -2.0124     0.9704 C.2     
   6 N6             0.0529    -2.9246     2.0175 N.am    
   7 C7             0.0695    -4.2472     1.7589 C.2     
   8 O8             0.0687    -4.6419     0.6084 O.2     
   9 C9             0.0885    -5.2145     2.8692 C.2     
  10 C10            0.1116    -6.5800     2.6204 C.2     
  11 C11            0.1299    -7.4740     3.7056 C.2     
  12 C12            0.1250    -7.0070     4.9976 C.2     
  13 N13            0.1026    -5.6785     5.2688 N.pl3   
  14 N14            0.0928    -4.9449     6.4644 N.2     
  15 C15            0.0699    -3.6753     6.1368 C.2     
  16 N16            0.0645    -3.5565     4.8148 N.2     
  17 C17            0.0897    -4.7574     4.2594 C.2     
  18 C18            0.1541    -8.9366     3.4527 C.ar    
  19 C19            1.2572    -9.5208     2.8340 C.ar    
  20 C20            1.2747   -10.8812     2.6018 C.ar    
  21 C21            0.1998   -11.6642     2.9821 C.ar    
  22 C22           -0.8979   -11.0893     3.5967 C.ar    
  23 C23           -0.9236    -9.7306     3.8385 C.ar    
  24 N24            0.0228    -0.7233     1.1086 N.2     
  25 H25            1.0042     1.8801     0.0026 H       
  26 H26           -0.5455     1.8639    -0.8728 H       
  27 H27           -0.5286     1.8543     0.9071 H       
  28 H28           -0.0048    -0.3210    -2.1286 H       
  29 H29            0.0535    -2.6098     2.9350 H       
  30 H30            0.1152    -6.9510     1.6061 H       
  31 H31            0.1389    -7.7130     5.8147 H       
  32 H32            0.0567    -2.8521     6.8359 H       
  33 H33            2.0969    -8.9103     2.5364 H       
  34 H34            2.1292   -11.3352     2.1219 H       
  35 H35            0.2175   -12.7283     2.7981 H       
  36 H36           -1.7346   -11.7052     3.8916 H       
  37 H37           -1.7792    -9.2834     4.3225 H       
@<TRIPOS>BOND
   1    1    2 1
   2    1   25 1
   3    1   26 1
   4    1   27 1
   5    2   24 1
   6    2    3 2
   7    3    4 1
   8    3   28 1
   9    4    5 1
  10    5    6 1
  11    5   24 2
  12    6    7 am
  13    6   29 1
  14    7    8 2
  15    7    9 1
  16    9   17 1
  17    9   10 2
  18   10   11 1
  19   10   30 1
  20   11   12 2
  21   11   18 1
  22   12   13 1
  23   12   31 1
  24   13   17 1
  25   13   14 1
  26   14   15 2
  27   15   16 1
  28   15   32 1
  29   16   17 2
  30   18   23 ar
  31   18   19 ar
  32   19   20 ar
  33   19   33 1
  34   20   21 ar
  35   20   34 1
  36   21   22 ar
  37   21   35 1
  38   22   23 ar
  39   22   36 1
  40   23   37 1

#	End of record

