#	Name: ASD01883727
#	Creating user name:	WinNT
#	Creation time:	15. 06. 2019 19:46

#	Modifying user name:	WinNT
#	Modification time:	15. 06. 2019 19:46

#	Program:	/corina/corina34_cracker 3.40 0067  02.08.2006

@<TRIPOS>MOLECULE
ASD01883727
  55   57    0    0    0
SMALL
NO_CHARGES


@<TRIPOS>ATOM
   1 N1             0.3887     1.8864    -0.4577 N.ar    
   2 C2             0.2441     0.5754    -0.4964 C.ar    
   3 C3             1.3381    -0.2604    -0.4112 C.ar    
   4 C4             2.6119     0.3008    -0.2824 C.ar    
   5 C5             2.7191     1.6937    -0.2456 C.ar    
   6 C6             1.5725     2.4559    -0.3371 C.ar    
   7 C7             3.8173    -0.5591    -0.1869 C.2     
   8 C8             3.8436    -1.9609    -0.3108 C.2     
   9 C9             5.1327    -2.3666    -0.1627 C.2     
  10 N10            5.8928    -1.2596     0.0473 N.pl3   
  11 N11            5.0483    -0.1426     0.0228 N.2     
  12 C12            1.6740     3.9590    -0.2987 C.3     
  13 C13            7.3424    -1.2382     0.2581 C.3     
  14 C14            8.0545    -1.2171    -1.0959 C.3     
  15 O15            7.7529     0.0043    -1.7737 O.3     
  16 N16            5.5917    -3.6804    -0.2160 N.pl3   
  17 C17            5.8899    -4.2666    -1.4485 C.ar    
  18 C18            6.4461    -5.5388    -1.4977 C.ar    
  19 C19            6.7398    -6.1168    -2.7174 C.ar    
  20 C20            6.4816    -5.4312    -3.8896 C.ar    
  21 C21            5.9271    -4.1624    -3.8454 C.ar    
  22 C22            5.6256    -3.5809    -2.6274 C.ar    
  23 C23            9.5655    -1.3205    -0.8792 C.3     
  24 C24            5.7618    -4.4476     1.0204 C.3     
  25 C25            6.8044    -6.0650    -5.2182 C.3     
  26 F26            7.3513    -7.3355    -5.0083 F       
  27 F27            5.6344    -6.1805    -5.9764 F       
  28 F28            7.7273    -5.2675    -5.9034 F       
  29 F29            5.6763    -3.4947    -4.9928 F       
  30 C30            4.5119    -5.2935     1.2718 C.3     
  31 C31            4.6896    -6.0948     2.5630 C.3     
  32 H32           -0.7441     0.1511    -0.5957 H       
  33 H33            1.2123    -1.3326    -0.4432 H       
  34 H34            3.6850     2.1665    -0.1467 H       
  35 H35            2.9919    -2.6000    -0.4907 H       
  36 H36            1.6037     4.3016     0.7337 H       
  37 H37            2.6300     4.2695    -0.7203 H       
  38 H38            0.8617     4.3930    -0.8817 H       
  39 H39            7.6140    -0.3479     0.8253 H       
  40 H40            7.6422    -2.1276     0.8124 H       
  41 H41            7.7152    -2.0601    -1.6980 H       
  42 H42            8.1719     0.0864    -2.6413 H       
  43 H43            6.6490    -6.0754    -0.5827 H       
  44 H44            7.1721    -7.1058    -2.7552 H       
  45 H45            5.1933    -2.5919    -2.5924 H       
  46 H46            9.7955    -2.2521    -0.3622 H       
  47 H47           10.0728    -1.3055    -1.8439 H       
  48 H48            9.9047    -0.4776    -0.2771 H       
  49 H49            6.6295    -5.1006     0.9263 H       
  50 H50            5.9111    -3.7629     1.8552 H       
  51 H51            3.6442    -4.6405     1.3658 H       
  52 H52            4.3626    -5.9782     0.4369 H       
  53 H53            5.5573    -6.7477     2.4689 H       
  54 H54            4.8389    -5.4101     3.3979 H       
  55 H55            3.7991    -6.6974     2.7421 H       
@<TRIPOS>BOND
   1    1    2 ar
   2    1    6 ar
   3    2    3 ar
   4    2   32 1
   5    3    4 ar
   6    3   33 1
   7    4    5 ar
   8    4    7 1
   9    5    6 ar
  10    5   34 1
  11    6   12 1
  12    7    8 1
  13    7   11 2
  14    8    9 2
  15    8   35 1
  16    9   10 1
  17    9   16 1
  18   10   11 1
  19   10   13 1
  20   12   36 1
  21   12   37 1
  22   12   38 1
  23   13   14 1
  24   13   39 1
  25   13   40 1
  26   14   15 1
  27   14   23 1
  28   14   41 1
  29   15   42 1
  30   16   17 1
  31   16   24 1
  32   17   18 ar
  33   17   22 ar
  34   18   19 ar
  35   18   43 1
  36   19   20 ar
  37   19   44 1
  38   20   21 ar
  39   20   25 1
  40   21   22 ar
  41   21   29 1
  42   22   45 1
  43   23   46 1
  44   23   47 1
  45   23   48 1
  46   24   30 1
  47   24   49 1
  48   24   50 1
  49   25   26 1
  50   25   27 1
  51   25   28 1
  52   30   31 1
  53   30   51 1
  54   30   52 1
  55   31   53 1
  56   31   54 1
  57   31   55 1

#	End of record

