#	Name: ASD01885716
#	Creating user name:	WinNT
#	Creation time:	15. 06. 2019 19:50

#	Modifying user name:	WinNT
#	Modification time:	15. 06. 2019 19:50

#	Program:	/corina/corina34_cracker 3.40 0067  02.08.2006

@<TRIPOS>MOLECULE
ASD01885716
  58   61    0    0    0
SMALL
NO_CHARGES


@<TRIPOS>ATOM
   1 C1            -0.5707     0.8451     0.5502 C.ar    
   2 C2            -1.8876     1.3654     0.6273 C.ar    
   3 C3            -2.0680     2.7639     0.7775 C.ar    
   4 C4            -0.9336     3.5621     0.8422 C.ar    
   5 C5             0.3314     2.9700     0.7583 C.ar    
   6 N6             0.4778     1.6664     0.6131 N.ar    
   7 C7            -0.3933    -0.5435     0.4011 C.ar    
   8 C8            -1.4800    -1.3601     0.3389 C.ar    
   9 C9            -2.7718    -0.8448     0.4205 C.ar    
  10 C10           -2.9826     0.4952     0.5539 C.ar    
  11 C11           -3.4227     3.3543     0.8623 C.ar    
  12 C12           -3.7350     4.2437     1.8915 C.ar    
  13 C13           -4.9973     4.7918     1.9670 C.ar    
  14 C14           -4.3890     3.0274    -0.0902 C.ar    
  15 C15            1.5376     3.8302     0.8210 C.2     
  16 N16            2.7640     3.2787     0.7301 N.am    
  17 O17            1.4203     5.0321     0.9544 O.2     
  18 C18           -1.2827    -2.8469     0.1918 C.3     
  19 C19           -5.9581     4.4600     1.0203 C.ar    
  20 C20           -5.6492     3.5793    -0.0084 C.ar    
  21 O21           -7.2011     5.0021     1.0978 O.3     
  22 N22           -1.2532    -3.1972    -1.2304 N.pl3   
  23 C23           -8.1403     4.6177     0.0918 C.3     
  24 C24           -0.1448    -3.2453    -2.0322 C.2     
  25 C25           -0.5665    -3.6085    -3.2585 C.2     
  26 N26           -1.8961    -3.7777    -3.2069 N.2     
  27 C27           -2.3135    -3.5387    -1.9937 C.2     
  28 C28            0.3030    -3.7927    -4.4755 C.3     
  29 C29            1.2609    -4.9634    -4.2455 C.3     
  30 C30           -0.5776    -4.0857    -5.6919 C.3     
  31 C31           -1.4839    -2.8840    -5.9666 C.3     
  32 O32            1.0554    -2.6003    -4.7082 O.3     
  33 F33            0.5278    -6.1067    -3.9099 F       
  34 F34            1.9918    -5.2044    -5.4137 F       
  35 F35            2.1388    -4.6496    -3.2025 F       
  36 H36           -1.0270     4.6320     0.9560 H       
  37 H37            0.6014    -0.9590     0.3359 H       
  38 H38           -3.6170    -1.5156     0.3771 H       
  39 H39           -3.9889     0.8830     0.6119 H       
  40 H40           -2.9885     4.5018     2.6281 H       
  41 H41           -5.2398     5.4798     2.7633 H       
  42 H42           -4.1494     2.3429    -0.8905 H       
  43 H43            2.8576     2.3191     0.6236 H       
  44 H44            3.5530     3.8414     0.7711 H       
  45 H45           -0.3403    -3.1362     0.6569 H       
  46 H46           -2.1044    -3.3723     0.6784 H       
  47 H47           -6.3987     3.3236    -0.7427 H       
  48 H48           -9.0905     5.1211     0.2705 H       
  49 H49           -7.7582     4.9003    -0.8891 H       
  50 H50           -8.2888     3.5384     0.1267 H       
  51 H51            0.8723    -3.0322    -1.7381 H       
  52 H52           -3.3383    -3.5972    -1.6577 H       
  53 H53            0.0535    -4.2711    -6.5611 H       
  54 H54           -1.1903    -4.9650    -5.4935 H       
  55 H55           -2.1535    -2.7328    -5.1200 H       
  56 H56           -0.8725    -1.9931    -6.1100 H       
  57 H57           -2.0713    -3.0700    -6.8658 H       
  58 H58            0.5115    -1.8158    -4.8622 H       
@<TRIPOS>BOND
   1    1    7 ar
   2    1    6 ar
   3    1    2 ar
   4    2    3 ar
   5    2   10 ar
   6    3   11 1
   7    3    4 ar
   8    4    5 ar
   9    4   36 1
  10    5   15 1
  11    5    6 ar
  12    7    8 ar
  13    7   37 1
  14    8    9 ar
  15    8   18 1
  16    9   10 ar
  17    9   38 1
  18   10   39 1
  19   11   12 ar
  20   11   14 ar
  21   12   13 ar
  22   12   40 1
  23   13   19 ar
  24   13   41 1
  25   14   20 ar
  26   14   42 1
  27   15   16 am
  28   15   17 2
  29   16   43 1
  30   16   44 1
  31   18   22 1
  32   18   45 1
  33   18   46 1
  34   19   20 ar
  35   19   21 1
  36   20   47 1
  37   21   23 1
  38   22   24 1
  39   22   27 1
  40   23   48 1
  41   23   49 1
  42   23   50 1
  43   24   25 2
  44   24   51 1
  45   25   26 1
  46   25   28 1
  47   26   27 2
  48   27   52 1
  49   28   29 1
  50   28   30 1
  51   28   32 1
  52   29   33 1
  53   29   34 1
  54   29   35 1
  55   30   31 1
  56   30   53 1
  57   30   54 1
  58   31   55 1
  59   31   56 1
  60   31   57 1
  61   32   58 1

#	End of record

