#	Name: ASD03731365
#	Creating user name:	WinNT
#	Creation time:	15. 06. 2019 20:45

#	Modifying user name:	WinNT
#	Modification time:	15. 06. 2019 20:45

#	Program:	/corina/corina34_cracker 3.40 0067  02.08.2006

@<TRIPOS>MOLECULE
ASD03731365
  50   54    0    0    0
SMALL
NO_CHARGES


@<TRIPOS>ATOM
   1 C1             0.0021    -0.0041     0.0020 C.1     
   2 C2            -0.0179     1.4678     0.0101 C.3     
   3 C3             1.4175     1.9974    -0.0007 C.3     
   4 N4             0.0175    -1.1399    -0.0042 N.1     
   5 N5             1.3976     3.4662     0.0073 N.3     
   6 C6             2.7617     4.0113    -0.0028 C.3     
   7 C7             2.7001     5.5400     0.0060 C.3     
   8 C8             4.1209     6.1077    -0.0045 C.3     
   9 O9            -0.7912    10.8688     2.2077 O.3     
  10 C10           -1.2459    12.2111     2.4615 C.3     
  11 O11           -0.0764    12.8779     2.9721 O.3     
  12 C12            0.9880    12.2136     2.4330 C.ar    
  13 C13            0.5480    10.9779     1.9641 C.ar    
  14 C14            2.3182    12.5696     2.3014 C.ar    
  15 C15            3.2251    11.6996     1.7037 C.ar    
  16 C16            2.7754    10.4646     1.2466 C.ar    
  17 C17            1.4485    10.1092     1.3708 C.ar    
  18 O18            4.5581    11.8599     1.4630 O.3     
  19 C19            3.9766     9.7513     0.6861 C.3     
  20 C20            5.1564    10.5709     1.2262 C.3     
  21 N21            4.0619     7.5715     0.0039 N.am    
  22 C22            4.0428     8.3173     1.1266 C.2     
  23 C23            3.9660     9.7068    -0.8132 C.ar    
  24 C24            3.9173    10.6727    -1.7934 C.ar    
  25 C25            3.9228    10.3069    -3.1276 C.ar    
  26 C26            3.9766     8.9691    -3.4743 C.ar    
  27 C27            4.0245     7.9978    -2.4962 C.ar    
  28 C28            4.0198     8.3569    -1.1505 C.ar    
  29 O29            4.0735     7.9101     2.2686 O.2     
  30 H30           -0.5451     1.8289    -0.8729 H       
  31 H31           -0.5281     1.8193     0.9069 H       
  32 H32            1.9447     1.6363     0.8823 H       
  33 H33            1.9277     1.6458    -0.8975 H       
  34 H34            0.8592     3.8248    -0.7670 H       
  35 H35            3.2982     3.6641     0.8803 H       
  36 H36            3.2812     3.6737    -0.8996 H       
  37 H37            2.1636     5.8871    -0.8770 H       
  38 H38            2.1806     5.8775     0.9028 H       
  39 H39            4.6574     5.7606     0.8786 H       
  40 H40            4.6404     5.7701    -0.9013 H       
  41 H41           -1.5829    12.6823     1.5382 H       
  42 H42           -2.0424    12.2114     3.2056 H       
  43 H43            2.6552    13.5291     2.6649 H       
  44 H44            1.1110     9.1508     1.0048 H       
  45 H45            5.9501    10.6434     0.4826 H       
  46 H46            5.5326    10.1422     2.1550 H       
  47 H47            3.8751    11.7168    -1.5203 H       
  48 H48            3.8855    11.0643    -3.8967 H       
  49 H49            3.9807     8.6836    -4.5159 H       
  50 H50            4.0658     6.9552    -2.7748 H       
@<TRIPOS>BOND
   1    1    2 1
   2    1    4 3
   3    2    3 1
   4    2   30 1
   5    2   31 1
   6    3    5 1
   7    3   32 1
   8    3   33 1
   9    5    6 1
  10    5   34 1
  11    6    7 1
  12    6   35 1
  13    6   36 1
  14    7    8 1
  15    7   37 1
  16    7   38 1
  17    8   21 1
  18    8   39 1
  19    8   40 1
  20    9   10 1
  21    9   13 1
  22   10   11 1
  23   10   41 1
  24   10   42 1
  25   11   12 1
  26   12   13 ar
  27   12   14 ar
  28   13   17 ar
  29   14   15 ar
  30   14   43 1
  31   15   16 ar
  32   15   18 1
  33   16   17 ar
  34   16   19 1
  35   17   44 1
  36   18   20 1
  37   19   20 1
  38   19   22 1
  39   19   23 1
  40   20   45 1
  41   20   46 1
  42   21   22 am
  43   21   28 1
  44   22   29 2
  45   23   24 ar
  46   23   28 ar
  47   24   25 ar
  48   24   47 1
  49   25   26 ar
  50   25   48 1
  51   26   27 ar
  52   26   49 1
  53   27   28 ar
  54   27   50 1

#	End of record

