#	Name: ASD00170215
#	Creating user name:	WinNT
#	Creation time:	15. 06. 2019 18:31

#	Modifying user name:	WinNT
#	Modification time:	15. 06. 2019 18:31

#	Program:	/corina/corina34_cracker 3.40 0067  02.08.2006

@<TRIPOS>MOLECULE
ASD00170215
  43   45    0    0    0
SMALL
NO_CHARGES


@<TRIPOS>ATOM
   1 C1             0.0503     1.2485    -0.0629 C.2     
   2 C2            -0.0710    -0.1044     0.0388 C.2     
   3 C3            -1.4570    -0.5304     0.1164 C.2     
   4 C4            -2.3418     0.5174     0.0706 C.2     
   5 S5            -1.5304     2.0092    -0.0578 S.3     
   6 C6             1.0794    -1.0348     0.0666 C.ar    
   7 C7             1.3638    -1.7630     1.2223 C.ar    
   8 C8             2.4377    -2.6292     1.2416 C.ar    
   9 C9             3.2316    -2.7764     0.1183 C.ar    
  10 C10            2.9549    -2.0571    -1.0310 C.ar    
  11 C11            1.8811    -1.1919    -1.0649 C.ar    
  12 N12           -3.7129     0.3803     0.1264 N.pl3   
  13 C13           -1.8667    -1.9288     0.2303 C.2     
  14 O14           -2.0954    -2.6575    -0.8819 O.3     
  15 O15           -2.0016    -2.4357     1.3282 O.2     
  16 C16            1.3322     1.9732    -0.1577 C.ar    
  17 C17            1.5110     2.9578    -1.1326 C.ar    
  18 C18            2.7113     3.6317    -1.2155 C.ar    
  19 C19            3.7383     3.3340    -0.3354 C.ar    
  20 C20            3.5676     2.3590     0.6333 C.ar    
  21 C21            2.3703     1.6817     0.7307 C.ar    
  22 C22           -2.4929    -4.0175    -0.6961 C.3     
  23 C23           -2.7047    -4.6778    -2.0599 C.3     
  24 Cl24           5.2466     4.1862    -0.4472 Cl      
  25 C25            2.7466    -3.4161     2.4891 C.3     
  26 F26            2.0624    -4.6358     2.4524 F       
  27 F27            4.1231    -3.6556     2.5605 F       
  28 F28            2.3411    -2.6875     3.6124 F       
  29 H29            0.7449    -1.6486     2.0999 H       
  30 H30            4.0712    -3.4555     0.1386 H       
  31 H31            3.5785    -2.1765    -1.9047 H       
  32 H32            1.6660    -0.6313    -1.9626 H       
  33 H33           -4.1094    -0.5016     0.2031 H       
  34 H34           -4.2808     1.1658     0.0890 H       
  35 H35            0.7111     3.1905    -1.8199 H       
  36 H36            2.8508     4.3931    -1.9686 H       
  37 H37            4.3726     2.1313     1.3164 H       
  38 H38            2.2383     0.9216     1.4865 H       
  39 H39           -1.7153    -4.5520    -0.1504 H       
  40 H40           -3.4228    -4.0499    -0.1284 H       
  41 H41           -3.4823    -4.1433    -2.6055 H       
  42 H42           -1.7748    -4.6454    -2.6276 H       
  43 H43           -3.0079    -5.7151    -1.9182 H       
@<TRIPOS>BOND
   1    1    2 2
   2    1   16 1
   3    1    5 1
   4    2    3 1
   5    2    6 1
   6    3    4 2
   7    3   13 1
   8    4    5 1
   9    4   12 1
  10    6    7 ar
  11    6   11 ar
  12    7    8 ar
  13    7   29 1
  14    8    9 ar
  15    8   25 1
  16    9   10 ar
  17    9   30 1
  18   10   11 ar
  19   10   31 1
  20   11   32 1
  21   12   33 1
  22   12   34 1
  23   13   14 1
  24   13   15 2
  25   14   22 1
  26   16   17 ar
  27   16   21 ar
  28   17   18 ar
  29   17   35 1
  30   18   19 ar
  31   18   36 1
  32   19   20 ar
  33   19   24 1
  34   20   21 ar
  35   20   37 1
  36   21   38 1
  37   22   23 1
  38   22   39 1
  39   22   40 1
  40   23   41 1
  41   23   42 1
  42   23   43 1
  43   25   26 1
  44   25   27 1
  45   25   28 1

#	End of record

