#	Name: ASD04570056
#	Creating user name:	WinNT
#	Creation time:	15. 06. 2019 20:50

#	Modifying user name:	WinNT
#	Modification time:	15. 06. 2019 20:50

#	Program:	/corina/corina34_cracker 3.40 0067  02.08.2006

@<TRIPOS>MOLECULE
ASD04570056
 357  359    0    0    0
SMALL
NO_CHARGES


@<TRIPOS>ATOM
   1 C1            -0.0187     1.5258     0.0104 C.3     
   2 C2             0.0021    -0.0041     0.0020 C.3     
   3 C3            -1.4333    -0.5336     0.0129 C.3     
   4 C4            -1.4126    -2.0635     0.0045 C.3     
   5 C5            -2.8479    -2.5931     0.0153 C.3     
   6 C6            -2.8272    -4.1229     0.0069 C.3     
   7 C7            -4.2626    -4.6525     0.0178 C.3     
   8 C8            -4.2418    -6.1823     0.0094 C.3     
   9 C9            -5.6772    -6.7119     0.0202 C.3     
  10 C10           -5.6565    -8.2417     0.0118 C.3     
  11 C11           -7.0918    -8.7713     0.0227 C.3     
  12 C12           -7.0711   -10.3012     0.0143 C.3     
  13 C13           -8.5065   -10.8307     0.0251 C.3     
  14 C14           -8.4857   -12.3606     0.0167 C.3     
  15 S15          -10.1876   -12.9885     0.0296 S.o2    
  16 N16          -10.0203   -14.6359     0.0191 N.am    
  17 O17          -10.8133   -12.7076     1.2741 O.2     
  18 C18           -9.4018   -15.3167     1.1595 C.3     
  19 C19           -9.6942   -16.7930     1.0821 C.2     
  20 N20           -9.2223   -17.6241     2.0324 N.am    
  21 O21          -10.3542   -17.2332     0.1648 O.2     
  22 C22           -9.5066   -19.0593     1.9572 C.3     
  23 C23           -8.8705   -19.7595     3.1302 C.2     
  24 N24           -9.0004   -21.0937     3.2700 N.am    
  25 O25           -8.2416   -19.1225     3.9485 O.2     
  26 C26           -8.3820   -21.7744     4.4104 C.3     
  27 C27           -9.1280   -23.0519     4.6977 C.2     
  28 O28          -10.0823   -23.3632     4.0169 O.2     
  29 N29           -8.7347   -23.8486     5.7112 N.am    
  30 C30           -6.9234   -22.0986     4.0811 C.3     
  31 C31           -6.1492   -20.8165     3.9144 C.ar    
  32 C32           -5.5322   -20.2358     5.0070 C.ar    
  33 C33           -9.4599   -25.0905     5.9905 C.3     
  34 C34          -10.6614   -24.7886     6.8883 C.3     
  35 C35           -8.5428   -26.0617     6.6882 C.2     
  36 O36           -7.3964   -25.7474     6.9285 O.2     
  37 N37           -8.9967   -27.2795     7.0452 N.am    
  38 C38          -11.6531   -23.9021     6.1323 C.3     
  39 C39          -12.8365   -23.6047     7.0167 C.2     
  40 N40          -13.8440   -22.8358     6.5583 N.am    
  41 C41           -8.1052   -28.2236     7.7235 C.3     
  42 C42           -8.1127   -27.9417     9.2273 C.3     
  43 C43           -8.5809   -29.6316     7.4739 C.2     
  44 O44           -9.5675   -29.8272     6.7962 O.2     
  45 N45           -7.9100   -30.6735     8.0039 N.am    
  46 C46           -8.3725   -32.0422     7.7613 C.3     
  47 C47           -7.8925   -32.9511     8.8946 C.3     
  48 C48           -7.8152   -32.5360     6.4510 C.2     
  49 C49           -8.5568   -32.5258    10.2056 C.3     
  50 C50           -8.0767   -33.4347    11.3389 C.3     
  51 C51           -4.8218   -19.0605     4.8568 C.ar    
  52 C52           -4.7279   -18.4629     3.6084 C.ar    
  53 C53           -5.3479   -19.0475     2.5136 C.ar    
  54 C54           -6.0523   -20.2258     2.6680 C.ar    
  55 O55           -4.0301   -17.3065     3.4581 O.3     
  56 O56          -12.8822   -24.0573     8.1410 O.2     
  57 C57           -8.7410   -33.0094    12.6499 C.3     
  58 N58           -8.2801   -33.8821    13.7380 N.3     
  59 C59            1.4167     2.0553    -0.0004 C.3     
  60 H60          -10.3317   -15.1503    -0.7420 H       
  61 C61           -7.5132   -26.5588     9.4899 C.3     
  62 C62           -7.5208   -26.2769    10.9937 C.3     
  63 C63           -6.9212   -24.8940    11.2564 C.3     
  64 N64           -6.9285   -24.6233    12.7002 N.3     
  65 C65           -8.4665   -33.6972     5.7450 C.3     
  66 O66           -6.8468   -32.0011     5.9669 O.2     
  67 O67          -10.8369   -12.6944    -1.1997 O.2     
  68 H68           -0.5459     1.8868    -0.8726 H       
  69 H69           -0.5289     1.8773     0.9072 H       
  70 H70            0.5123    -0.3556    -0.8948 H       
  71 H71            0.5293    -0.3651     0.8851 H       
  72 H72           -1.9435    -0.1821     0.9097 H       
  73 H73           -1.9605    -0.1726    -0.8702 H       
  74 H74           -0.9024    -2.4150    -0.8923 H       
  75 H75           -0.8854    -2.4246     0.8875 H       
  76 H76           -3.3581    -2.2415     0.9121 H       
  77 H77           -3.3751    -2.2320    -0.8677 H       
  78 H78           -2.3170    -4.4744    -0.8899 H       
  79 H79           -2.3000    -4.4840     0.8900 H       
  80 H80           -4.7728    -4.3010     0.9146 H       
  81 H81           -4.7898    -4.2914    -0.8653 H       
  82 H82           -3.7316    -6.5338    -0.8874 H       
  83 H83           -3.7146    -6.5434     0.8924 H       
  84 H84           -6.1874    -6.3604     0.9170 H       
  85 H85           -6.2044    -6.3508    -0.8628 H       
  86 H86           -5.1463    -8.5933    -0.8850 H       
  87 H87           -5.1293    -8.6028     0.8949 H       
  88 H88           -7.6020    -8.4198     0.9195 H       
  89 H89           -7.6190    -8.4102    -0.8604 H       
  90 H90           -6.5609   -10.6527    -0.8825 H       
  91 H91           -6.5439   -10.6622     0.8973 H       
  92 H92           -9.0167   -10.4792     0.9219 H       
  93 H93           -9.0337   -10.4697    -0.8579 H       
  94 H94           -7.9755   -12.7121    -0.8801 H       
  95 H95           -7.9586   -12.7217     0.8998 H       
  96 H96           -8.3237   -15.1581     1.1363 H       
  97 H97           -9.8084   -14.9139     2.0872 H       
  98 H98           -8.6945   -17.2720     2.7661 H       
  99 H99          -10.5847   -19.2179     1.9804 H       
 100 H100          -9.1000   -19.4621     1.0295 H       
 101 H101          -9.5034   -21.6032     2.6156 H       
 102 H102          -8.4214   -21.1260     5.2856 H       
 103 H103          -7.9715   -23.5997     6.2556 H       
 104 H104          -6.4889   -22.6826     4.8925 H       
 105 H105          -6.8788   -22.6729     3.1558 H       
 106 H106          -5.6059   -20.7013     5.9788 H       
 107 H107          -9.8068   -25.5271     5.0539 H       
 108 H108         -11.1492   -25.7222     7.1687 H       
 109 H109         -10.3231   -24.2715     7.7863 H       
 110 H110          -9.9137   -27.5308     6.8530 H       
 111 H111         -11.1653   -22.9685     5.8520 H       
 112 H112         -11.9914   -24.4192     5.2344 H       
 113 H113         -13.8074   -22.4738     5.6591 H       
 114 H114         -14.6057   -22.6444     7.1275 H       
 115 H115          -7.0924   -28.1085     7.3373 H       
 116 H116          -9.1377   -27.9695     9.5970 H       
 117 H117          -7.5202   -28.6983     9.7417 H       
 118 H118          -7.1210   -30.5170     8.5459 H       
 119 H119          -9.4617   -32.0560     7.7211 H       
 120 H120          -8.1597   -33.9838     8.6701 H       
 121 H121          -6.8100   -32.8691     8.9924 H       
 122 H122          -8.2895   -31.4932    10.4300 H       
 123 H123          -9.6392   -32.6079    10.1077 H       
 124 H124          -8.3440   -34.4674    11.1144 H       
 125 H125          -6.9942   -33.3527    11.4367 H       
 126 H126          -4.3403   -18.6072     5.7107 H       
 127 H127          -5.2763   -18.5842     1.5407 H       
 128 H128          -6.5349   -20.6816     1.8161 H       
 129 H129          -3.0951   -17.4358     3.2477 H       
 130 H130          -8.4737   -31.9768    12.8743 H       
 131 H131          -9.8235   -33.0915    12.5520 H       
 132 H132          -8.7049   -33.6213    14.6152 H       
 133 H133          -8.4585   -34.8519    13.5240 H       
 134 H134           1.9269     1.7038    -0.8972 H       
 135 H135           1.4019     3.1452     0.0056 H       
 136 H136           1.9439     1.6943     0.8826 H       
 137 H137          -6.4882   -26.5310     9.1202 H       
 138 H138          -8.1057   -25.8022     8.9755 H       
 139 H139          -8.5457   -26.3047    11.3634 H       
 140 H140          -6.9283   -27.0335    11.5082 H       
 141 H141          -5.8962   -24.8661    10.8866 H       
 142 H142          -7.5137   -24.1374    10.7419 H       
 143 H143          -6.5371   -23.7150    12.8998 H       
 144 H144          -7.8599   -24.7069    13.0791 H       
 145 H145          -9.5018   -33.4472     5.5133 H       
 146 H146          -7.9282   -33.9087     4.8210 H       
 147 H147          -8.4404   -34.5755     6.3899 H       
 148 C148          12.2669    21.9797    39.9787 C.3     
 149 C149          13.6615    22.5151    40.3089 C.3     
 150 C150          13.7460    23.9692    39.9220 C.2     
 151 N151          13.9100    22.3770    41.7461 N.am    
 152 N152          13.5506    24.3380    38.6405 N.am    
 153 O153          13.9897    24.8075    40.7639 O.2     
 154 C154          13.6327    25.7515    38.2644 C.3     
 155 C155          12.8163    25.9885    37.0201 C.2     
 156 N156          12.4368    27.2392    36.6911 N.am    
 157 O157          12.5007    25.0537    36.3147 O.2     
 158 C158          11.7096    27.4794    35.4422 C.3     
 159 C159          12.3428    28.6319    34.7060 C.2     
 160 O160          13.3065    29.1969    35.1780 O.2     
 161 N161          11.8380    29.0346    33.5230 N.am    
 162 C162          12.4535    30.1550    32.8073 C.3     
 163 C163          11.8810    31.4726    33.3336 C.3     
 164 C164          12.1595    30.0324    31.3343 C.2     
 165 O165          11.5007    29.1009    30.9229 O.2     
 166 N166          12.6286    30.9579    30.4742 N.am    
 167 C167          12.3428    30.8387    29.0423 C.3     
 168 C168          10.9788    31.4627    28.7408 C.3     
 169 C169          13.4088    31.5571    28.2558 C.2     
 170 O170          14.3177    32.1139    28.8344 O.2     
 171 N171          13.3521    31.5810    26.9094 N.am    
 172 C172          14.3883    32.2794    26.1449 C.3     
 173 C173          14.0316    33.7635    26.0399 C.3     
 174 C174          14.4790    31.6855    24.7628 C.2     
 175 O175          13.7498    30.7691    24.4475 O.2     
 176 N176          15.3704    32.1728    23.8771 N.am    
 177 C177          14.0617    34.3951    27.4331 C.3     
 178 C178          13.7049    35.8792    27.3281 C.3     
 179 N179          13.7337    36.4839    28.6622 N.pl3   
 180 C180          13.4445    37.8189    28.8182 C.2     
 181 C181          15.0921    26.1238    37.9954 C.3     
 182 C182          15.1840    27.6121    37.6526 C.3     
 183 O183          15.8750    25.8540    39.1601 O.3     
 184 C184          10.2508    27.8156    35.7580 C.3     
 185 C185           9.5722    26.6052    36.3458 C.2     
 186 O186           8.2642    26.6478    36.6441 O.3     
 187 O187          10.2056    25.5964    36.5484 O.2     
 188 C188          12.2861    31.6560    34.7976 C.3     
 189 C189          11.7136    32.9736    35.3240 C.3     
 190 C190          12.1188    33.1570    36.7879 C.3     
 191 N191          11.5691    34.4221    37.2933 N.3     
 192 C192           9.8996    30.6683    29.4302 C.ar    
 193 C193           9.5104    31.0022    30.7143 C.ar    
 194 C194           9.2962    29.6105    28.7754 C.ar    
 195 C195           8.3063    28.8811    29.4051 C.ar    
 196 C196           7.9177    29.2107    30.6954 C.ar    
 197 C197           8.5213    30.2756    31.3484 C.ar    
 198 N198          13.4715    38.3864    30.0701 N.pl3   
 199 N199          13.1447    38.5465    27.7792 N.2     
 200 C200          15.4586    31.5955    22.5335 C.3     
 201 C201          16.3637    30.3910    22.5627 C.2     
 202 C202          16.0266    32.6369    21.5673 C.3     
 203 C203          15.0586    33.8172    21.4627 C.3     
 204 N204          16.5950    29.6943    21.4324 N.am    
 205 O205          16.8839    30.0484    23.6034 O.2     
 206 C206          15.7030    34.9338    20.6387 C.3     
 207 O207           6.9439    28.4949    31.3168 O.3     
 208 C208          13.7681    33.3594    20.7802 C.3     
 209 C209          12.2202    20.4982    40.2507 C.2     
 210 C210          11.3375    19.8676    41.0487 C.2     
 211 N211          11.6510    18.5356    41.0112 N.pl3   
 212 C212          12.7150    18.3986    40.1910 C.2     
 213 N213          13.0468    19.5759    39.7359 N.2     
 214 C214          14.3806    21.2146    42.2399 C.2     
 215 C215          14.6362    21.0724    43.7182 C.3     
 216 O216          14.5983    20.2830    41.4945 O.2     
 217 N217          15.1430    19.7237    44.0106 N.am    
 218 C218          14.2177    19.0643    44.9500 C.3     
 219 C219          12.8607    19.7811    44.7388 C.3     
 220 C220          13.3157    21.2448    44.4981 C.3     
 221 C221          16.2669    19.1798    43.5033 C.2     
 222 C222          16.6684    17.7801    43.8914 C.3     
 223 O223          16.9553    19.8169    42.7344 O.2     
 224 N224          17.9161    17.4236    43.2114 N.am    
 225 C225          16.8749    17.7101    45.4058 C.3     
 226 C226          17.1601    16.2638    45.8153 C.3     
 227 C227          17.3666    16.1939    47.3297 C.3     
 228 N228          17.6398    14.8090    47.7219 N.pl3   
 229 C229          17.8599    14.4994    49.0432 C.2     
 230 N230          17.8237    15.4894    49.9965 N.pl3   
 231 N231          18.1029    13.2673    49.3921 N.2     
 232 C232          18.2120    16.1290    42.9812 C.2     
 233 C233          19.4506    15.7660    42.2034 C.3     
 234 O234          17.4814    15.2562    43.4001 O.2     
 235 N235          19.8086    14.3722    42.4779 N.am    
 236 C236          19.1819    15.9383    40.7070 C.3     
 237 C237          18.9660    17.4205    40.3950 C.3     
 238 C238          20.2721    18.1847    40.6211 C.3     
 239 C239          18.5298    17.5765    38.9368 C.3     
 240 C240          21.0950    13.9783    42.3967 C.2     
 241 C241          21.4499    12.5237    42.5673 C.3     
 242 O242          21.9670    14.7946    42.1863 O.2     
 243 C243          20.7415    11.6965    41.4926 C.3     
 244 C244          22.9636    12.3485    42.4304 C.3     
 245 C245          23.3377    10.8948    42.7265 C.3     
 246 C246          24.8514    10.7197    42.5896 C.3     
 247 C247          25.2255     9.2660    42.8857 C.3     
 248 N248          26.6789     9.0978    42.7543 N.3     
 249 H249          11.5270    22.4864    40.5984 H       
 250 H250          12.0469    22.1631    38.9270 H       
 251 H251          14.4092    21.9477    39.7547 H       
 252 H252          13.7359    23.1221    42.3422 H       
 253 H253          13.3557    23.6675    37.9672 H       
 254 H254          13.2445    26.3666    39.0763 H       
 255 H255          12.6452    27.9803    37.2812 H       
 256 H256          11.7500    26.5850    34.8205 H       
 257 H257          11.0672    28.5827    33.1455 H       
 258 H258          13.5318    30.1385    32.9652 H       
 259 H259          12.2717    32.3005    32.7421 H       
 260 H260          10.7939    31.4527    33.2573 H       
 261 H261          13.1555    31.7029    30.8032 H       
 262 H262          12.3310    29.7858    28.7606 H       
 263 H263          10.9613    32.4905    29.1034 H       
 264 H264          10.8051    31.4541    27.6648 H       
 265 H265          12.6251    31.1356    26.4467 H       
 266 H266          15.3479    32.1712    26.6505 H       
 267 H267          14.7544    34.2663    25.3973 H       
 268 H268          13.0333    33.8680    25.6150 H       
 269 H269          15.9536    32.9057    24.1293 H       
 270 H270          13.3389    33.8922    28.0757 H       
 271 H271          15.0600    34.2905    27.8580 H       
 272 H272          14.4277    36.3820    26.6856 H       
 273 H273          12.7066    35.9837    26.9033 H       
 274 H274          13.9569    35.9424    29.4354 H       
 275 H275          15.4693    25.5345    37.1596 H       
 276 H276          14.6947    28.1954    38.4326 H       
 277 H277          16.2316    27.9049    37.5830 H       
 278 H278          14.6910    27.7961    36.6980 H       
 279 H279          15.8631    24.9273    39.4360 H       
 280 H280          10.2140    28.6364    36.4743 H       
 281 H281           9.7392    28.1099    34.8416 H       
 282 H282           7.8732    25.8469    37.0191 H       
 283 H283          11.8954    30.8280    35.3892 H       
 284 H284          13.3732    31.6759    34.8740 H       
 285 H285          12.1043    33.8015    34.7324 H       
 286 H286          10.6265    32.9537    35.2476 H       
 287 H287          11.7281    32.3290    37.3795 H       
 288 H288          13.2059    33.1769    36.8643 H       
 289 H289          11.8230    34.5664    38.2591 H       
 290 H290          11.8652    35.1990    36.7216 H       
 291 H291           9.9804    31.8314    31.2221 H       
 292 H292           9.5988    29.3546    27.7708 H       
 293 H293           7.8351    28.0551    28.8931 H       
 294 H294           8.2206    30.5341    32.3530 H       
 295 H295          13.6947    37.8449    30.8434 H       
 296 H296          13.2675    39.3283    30.1802 H       
 297 H297          12.9407    39.4884    27.8892 H       
 298 H298          14.4648    31.2953    22.2011 H       
 299 H299          16.9897    32.9886    21.9371 H       
 300 H300          16.1578    32.1864    20.5834 H       
 301 H301          14.8294    34.1887    22.4615 H       
 302 H302          16.1790    29.9683    20.6001 H       
 303 H303          17.1776    28.9190    21.4512 H       
 304 H304          15.8526    34.5900    19.6152 H       
 305 H305          15.0504    35.8069    20.6370 H       
 306 H306          16.6649    35.1999    21.0769 H       
 307 H307           7.2729    27.7382    31.8210 H       
 308 H308          13.3090    32.5639    21.3672 H       
 309 H309          13.0785    34.2003    20.7057 H       
 310 H310          13.9973    32.9880    19.7814 H       
 311 H311          10.5366    20.3248    41.6106 H       
 312 H312          11.1941    17.8232    41.4852 H       
 313 H313          13.2072    17.4684    39.9485 H       
 314 H314          15.3610    21.8192    44.0424 H       
 315 H315          14.1278    18.0043    44.7128 H       
 316 H316          14.5608    19.1965    45.9761 H       
 317 H317          12.3413    19.3849    43.8663 H       
 318 H318          12.2371    19.7073    45.6297 H       
 319 H319          13.4910    21.7548    45.4453 H       
 320 H320          12.5814    21.7833    43.8990 H       
 321 H321          15.8832    17.0827    43.5992 H       
 322 H322          18.5292    18.1192    42.9268 H       
 323 H323          17.7185    18.3405    45.6869 H       
 324 H324          15.9752    18.0603    45.9117 H       
 325 H325          16.3165    15.6335    45.5342 H       
 326 H326          18.0598    15.9136    45.3094 H       
 327 H327          18.2103    16.8242    47.6109 H       
 328 H328          16.4669    16.5441    47.8357 H       
 329 H329          17.6653    14.1105    47.0493 H       
 330 H330          17.6429    16.4064    49.7368 H       
 331 H331          17.9791    15.2710    50.9287 H       
 332 H332          18.2582    13.0488    50.3244 H       
 333 H333          20.2715    16.4177    42.5025 H       
 334 H334          19.1199    13.7328    42.7181 H       
 335 H335          20.0357    15.5681    40.1396 H       
 336 H336          18.2904    15.3753    40.4308 H       
 337 H337          18.1926    17.8209    41.0504 H       
 338 H338          20.5307    18.1570    41.6796 H       
 339 H339          21.0694    17.7214    40.0401 H       
 340 H340          20.1466    19.2202    40.3047 H       
 341 H341          17.5993    17.0320    38.7757 H       
 342 H342          18.3760    18.6324    38.7145 H       
 343 H343          19.3032    17.1761    38.2814 H       
 344 H344          21.1327    12.1856    43.5538 H       
 345 H345          21.0587    12.0346    40.5061 H       
 346 H346          20.9982    10.6444    41.6160 H       
 347 H347          19.6631    11.8213    41.5901 H       
 348 H348          23.2684    12.6026    41.4152 H       
 349 H349          23.4707    13.0054    43.1371 H       
 350 H350          23.0329    10.6408    43.7417 H       
 351 H351          22.8306    10.2380    42.0197 H       
 352 H352          25.1563    10.9737    41.5744 H       
 353 H353          25.3586    11.3765    43.2963 H       
 354 H354          24.9207     9.0119    43.9009 H       
 355 H355          24.7184     8.6091    42.1790 H       
 356 H356          27.1731     9.7422    43.3532 H       
 357 H357          26.9514     8.1452    42.9451 H       
@<TRIPOS>BOND
   1    1    2 1
   2    1   59 1
   3    1   68 1
   4    1   69 1
   5    2    3 1
   6    2   70 1
   7    2   71 1
   8    3    4 1
   9    3   72 1
  10    3   73 1
  11    4    5 1
  12    4   74 1
  13    4   75 1
  14    5    6 1
  15    5   76 1
  16    5   77 1
  17    6    7 1
  18    6   78 1
  19    6   79 1
  20    7    8 1
  21    7   80 1
  22    7   81 1
  23    8    9 1
  24    8   82 1
  25    8   83 1
  26    9   10 1
  27    9   84 1
  28    9   85 1
  29   10   11 1
  30   10   86 1
  31   10   87 1
  32   11   12 1
  33   11   88 1
  34   11   89 1
  35   12   13 1
  36   12   90 1
  37   12   91 1
  38   13   14 1
  39   13   92 1
  40   13   93 1
  41   14   15 1
  42   14   94 1
  43   14   95 1
  44   15   16 am
  45   15   17 2
  46   15   67 2
  47   16   18 1
  48   16   60 1
  49   18   19 1
  50   18   96 1
  51   18   97 1
  52   19   20 am
  53   19   21 2
  54   20   22 1
  55   20   98 1
  56   22   23 1
  57   22   99 1
  58   22  100 1
  59   23   24 am
  60   23   25 2
  61   24   26 1
  62   24  101 1
  63   26   27 1
  64   26   30 1
  65   26  102 1
  66   27   28 2
  67   27   29 am
  68   29   33 1
  69   29  103 1
  70   30   31 1
  71   30  104 1
  72   30  105 1
  73   31   32 ar
  74   31   54 ar
  75   32   51 ar
  76   32  106 1
  77   33   34 1
  78   33   35 1
  79   33  107 1
  80   34   38 1
  81   34  108 1
  82   34  109 1
  83   35   36 2
  84   35   37 am
  85   37   41 1
  86   37  110 1
  87   38   39 1
  88   38  111 1
  89   38  112 1
  90   39   40 am
  91   39   56 2
  92   40  113 1
  93   40  114 1
  94   41   42 1
  95   41   43 1
  96   41  115 1
  97   42   61 1
  98   42  116 1
  99   42  117 1
 100   43   44 2
 101   43   45 am
 102   45   46 1
 103   45  118 1
 104   46   47 1
 105   46   48 1
 106   46  119 1
 107   47   49 1
 108   47  120 1
 109   47  121 1
 110   48   65 1
 111   48   66 2
 112   49   50 1
 113   49  122 1
 114   49  123 1
 115   50   57 1
 116   50  124 1
 117   50  125 1
 118   51   52 ar
 119   51  126 1
 120   52   53 ar
 121   52   55 1
 122   53   54 ar
 123   53  127 1
 124   54  128 1
 125   55  129 1
 126   57   58 1
 127   57  130 1
 128   57  131 1
 129   58  132 1
 130   58  133 1
 131   59  134 1
 132   59  135 1
 133   59  136 1
 134   61   62 1
 135   61  137 1
 136   61  138 1
 137   62   63 1
 138   62  139 1
 139   62  140 1
 140   63   64 1
 141   63  141 1
 142   63  142 1
 143   64  143 1
 144   64  144 1
 145   65  145 1
 146   65  146 1
 147   65  147 1
 148  148  209 1
 149  148  149 1
 150  148  249 1
 151  148  250 1
 152  149  150 1
 153  149  151 1
 154  149  251 1
 155  150  152 am
 156  150  153 2
 157  151  214 am
 158  151  252 1
 159  152  154 1
 160  152  253 1
 161  154  155 1
 162  154  181 1
 163  154  254 1
 164  155  156 am
 165  155  157 2
 166  156  158 1
 167  156  255 1
 168  158  159 1
 169  158  184 1
 170  158  256 1
 171  159  160 2
 172  159  161 am
 173  161  162 1
 174  161  257 1
 175  162  163 1
 176  162  164 1
 177  162  258 1
 178  163  188 1
 179  163  259 1
 180  163  260 1
 181  164  165 2
 182  164  166 am
 183  166  167 1
 184  166  261 1
 185  167  168 1
 186  167  169 1
 187  167  262 1
 188  168  192 1
 189  168  263 1
 190  168  264 1
 191  169  170 2
 192  169  171 am
 193  171  172 1
 194  171  265 1
 195  172  173 1
 196  172  174 1
 197  172  266 1
 198  173  177 1
 199  173  267 1
 200  173  268 1
 201  174  175 2
 202  174  176 am
 203  176  200 1
 204  176  269 1
 205  177  178 1
 206  177  270 1
 207  177  271 1
 208  178  179 1
 209  178  272 1
 210  178  273 1
 211  179  180 1
 212  179  274 1
 213  180  198 1
 214  180  199 2
 215  181  182 1
 216  181  183 1
 217  181  275 1
 218  182  276 1
 219  182  277 1
 220  182  278 1
 221  183  279 1
 222  184  185 1
 223  184  280 1
 224  184  281 1
 225  185  186 1
 226  185  187 2
 227  186  282 1
 228  188  189 1
 229  188  283 1
 230  188  284 1
 231  189  190 1
 232  189  285 1
 233  189  286 1
 234  190  191 1
 235  190  287 1
 236  190  288 1
 237  191  289 1
 238  191  290 1
 239  192  193 ar
 240  192  194 ar
 241  193  197 ar
 242  193  291 1
 243  194  195 ar
 244  194  292 1
 245  195  196 ar
 246  195  293 1
 247  196  197 ar
 248  196  207 1
 249  197  294 1
 250  198  295 1
 251  198  296 1
 252  199  297 1
 253  200  201 1
 254  200  202 1
 255  200  298 1
 256  201  204 am
 257  201  205 2
 258  202  203 1
 259  202  299 1
 260  202  300 1
 261  203  206 1
 262  203  208 1
 263  203  301 1
 264  204  302 1
 265  204  303 1
 266  206  304 1
 267  206  305 1
 268  206  306 1
 269  207  307 1
 270  208  308 1
 271  208  309 1
 272  208  310 1
 273  209  210 2
 274  209  213 1
 275  210  211 1
 276  210  311 1
 277  211  212 1
 278  211  312 1
 279  212  213 2
 280  212  313 1
 281  214  216 2
 282  214  215 1
 283  215  217 1
 284  215  220 1
 285  215  314 1
 286  217  218 1
 287  217  221 am
 288  218  219 1
 289  218  315 1
 290  218  316 1
 291  219  220 1
 292  219  317 1
 293  219  318 1
 294  220  319 1
 295  220  320 1
 296  221  222 1
 297  221  223 2
 298  222  224 1
 299  222  225 1
 300  222  321 1
 301  224  232 am
 302  224  322 1
 303  225  226 1
 304  225  323 1
 305  225  324 1
 306  226  227 1
 307  226  325 1
 308  226  326 1
 309  227  228 1
 310  227  327 1
 311  227  328 1
 312  228  229 1
 313  228  329 1
 314  229  230 1
 315  229  231 2
 316  230  330 1
 317  230  331 1
 318  231  332 1
 319  232  233 1
 320  232  234 2
 321  233  235 1
 322  233  236 1
 323  233  333 1
 324  235  240 am
 325  235  334 1
 326  236  237 1
 327  236  335 1
 328  236  336 1
 329  237  238 1
 330  237  239 1
 331  237  337 1
 332  238  338 1
 333  238  339 1
 334  238  340 1
 335  239  341 1
 336  239  342 1
 337  239  343 1
 338  240  241 1
 339  240  242 2
 340  241  243 1
 341  241  244 1
 342  241  344 1
 343  243  345 1
 344  243  346 1
 345  243  347 1
 346  244  245 1
 347  244  348 1
 348  244  349 1
 349  245  246 1
 350  245  350 1
 351  245  351 1
 352  246  247 1
 353  246  352 1
 354  246  353 1
 355  247  248 1
 356  247  354 1
 357  247  355 1
 358  248  356 1
 359  248  357 1

#	End of record

