#	Name: ASD01917275
#	Creating user name:	WinNT
#	Creation time:	15. 06. 2019 20:08

#	Modifying user name:	WinNT
#	Modification time:	15. 06. 2019 20:08

#	Program:	/corina/corina34_cracker 3.40 0067  02.08.2006

@<TRIPOS>MOLECULE
ASD01917275
  48   51    0    0    0
SMALL
NO_CHARGES


@<TRIPOS>ATOM
   1 C1            -0.0168     1.3896     0.0097 C.ar    
   2 C2             0.0021    -0.0041     0.0020 C.ar    
   3 C3             1.2210    -0.6608    -0.0132 C.ar    
   4 C4             2.3830     0.1001    -0.0202 C.ar    
   5 C5             2.2882     1.4856    -0.0119 C.ar    
   6 N6             1.1163     2.0811     0.0026 N.ar    
   7 C7            -1.3128     2.1054     0.0197 C.2     
   8 O8            -2.3535     1.4779     0.0212 O.2     
   9 N9            -1.3383     3.4529     0.0271 N.am    
  10 C10           -2.6206     4.1612     0.0371 C.3     
  11 C11           -3.4936     3.8179    -1.1827 C.3     
  12 C12           -4.8898     4.4093    -0.9790 C.3     
  13 C13           -4.7981     5.9158    -0.7283 C.3     
  14 C14           -3.8691     6.1688     0.4719 C.3     
  15 C15           -4.2626     5.1662     1.5813 C.3     
  16 C16           -3.4562     3.8621     1.3031 C.3     
  17 C17           -2.4520     5.7036     0.0442 C.3     
  18 C18           -5.1116     9.5085     1.8034 C.ar    
  19 C19           -6.3173    10.0622     2.2281 C.ar    
  20 C20           -6.3377    11.3779     2.6632 C.ar    
  21 C21           -5.1509    12.0943     2.6584 C.ar    
  22 C22           -3.9882    11.4796     2.2225 C.ar    
  23 N23           -3.9972    10.2292     1.8146 N.ar    
  24 C24           -5.0718     8.1014     1.3411 C.2     
  25 O25           -6.0882     7.4354     1.3334 O.2     
  26 N26           -3.9084     7.5601     0.9291 N.am    
  27 F27            3.5927    -0.5013    -0.0346 F       
  28 H28           -0.9214    -0.5641     0.0082 H       
  29 H29            1.2671    -1.7398    -0.0191 H       
  30 H30            3.1888     2.0815    -0.0170 H       
  31 H31           -0.5076     3.9537     0.0259 H       
  32 H32           -3.0460     4.2409    -2.0821 H       
  33 H33           -3.5675     2.7353    -1.2851 H       
  34 H34           -5.4918     4.2278    -1.8693 H       
  35 H35           -5.3633     3.9293    -0.1225 H       
  36 H36           -4.3940     6.4086    -1.6126 H       
  37 H37           -5.7906     6.3103    -0.5108 H       
  38 H38           -3.9981     5.5674     2.5597 H       
  39 H39           -5.3318     4.9594     1.5372 H       
  40 H40           -4.1373     3.0322     1.1151 H       
  41 H41           -2.7980     3.6253     2.1391 H       
  42 H42           -1.6936     6.0105     0.7644 H       
  43 H43           -2.2152     6.0755    -0.9527 H       
  44 H44           -7.2234     9.4747     2.2180 H       
  45 H45           -7.2572    11.8347     2.9980 H       
  46 H46           -5.1328    13.1217     2.9909 H       
  47 H47           -3.0618    12.0348     2.2174 H       
  48 H48           -3.0970     8.0917     0.9352 H       
@<TRIPOS>BOND
   1    1    2 ar
   2    1    6 ar
   3    1    7 1
   4    2    3 ar
   5    2   28 1
   6    3    4 ar
   7    3   29 1
   8    4    5 ar
   9    4   27 1
  10    5    6 ar
  11    5   30 1
  12    7    8 2
  13    7    9 am
  14    9   10 1
  15    9   31 1
  16   10   11 1
  17   10   16 1
  18   10   17 1
  19   11   12 1
  20   11   32 1
  21   11   33 1
  22   12   13 1
  23   12   34 1
  24   12   35 1
  25   13   14 1
  26   13   36 1
  27   13   37 1
  28   14   15 1
  29   14   17 1
  30   14   26 1
  31   15   16 1
  32   15   38 1
  33   15   39 1
  34   16   40 1
  35   16   41 1
  36   17   42 1
  37   17   43 1
  38   18   19 ar
  39   18   23 ar
  40   18   24 1
  41   19   20 ar
  42   19   44 1
  43   20   21 ar
  44   20   45 1
  45   21   22 ar
  46   21   46 1
  47   22   23 ar
  48   22   47 1
  49   24   25 2
  50   24   26 am
  51   26   48 1

#	End of record

