#	Name: ASD05430663
#	Creating user name:	WinNT
#	Creation time:	15. 06. 2019 21:00

#	Modifying user name:	WinNT
#	Modification time:	15. 06. 2019 21:00

#	Program:	/corina/corina34_cracker 3.40 0067  02.08.2006

@<TRIPOS>MOLECULE
ASD05430663
  21   21    0    0    0
SMALL
NO_CHARGES


@<TRIPOS>ATOM
   1 C1            -0.0167     1.3779     0.0096 C.ar    
   2 C2             0.0021    -0.0041     0.0020 C.ar    
   3 C3            -1.1849    -0.7130     0.0095 C.ar    
   4 C4            -2.4119     1.3476     0.0439 C.ar    
   5 C5            -1.2223     2.0543     0.0305 C.ar    
   6 C6             1.2785     2.1483     0.0014 C.3     
   7 C7            -2.3932    -0.0391     0.0247 C.ar    
   8 C8             1.3362     3.0356    -1.2437 C.3     
   9 C9             1.3601     3.0222     1.2546 C.3     
  10 F10           -3.5904     2.0078     0.0648 F       
  11 F11           -3.5535    -0.7311     0.0316 F       
  12 H12            0.9449    -0.5307    -0.0102 H       
  13 H13           -1.1689    -1.7929     0.0032 H       
  14 H14           -1.2355     3.1341     0.0454 H       
  15 H15            2.1161     1.4508    -0.0104 H       
  16 H16            0.4987     3.7331    -1.2320 H       
  17 H17            2.2730     3.5928    -1.2497 H       
  18 H18            1.2781     2.4130    -2.1365 H       
  19 H19            1.3190     2.3900     2.1417 H       
  20 H20            2.2969     3.5794     1.2487 H       
  21 H21            0.5225     3.7197     1.2664 H       
@<TRIPOS>BOND
   1    1    2 ar
   2    1    6 1
   3    1    5 ar
   4    2    3 ar
   5    2   12 1
   6    3    7 ar
   7    3   13 1
   8    4    5 ar
   9    4   10 1
  10    4    7 ar
  11    5   14 1
  12    6    8 1
  13    6    9 1
  14    6   15 1
  15    7   11 1
  16    8   16 1
  17    8   17 1
  18    8   18 1
  19    9   19 1
  20    9   20 1
  21    9   21 1

#	End of record

