#	Name: ASD08170634
#	Creating user name:	WinNT
#	Creation time:	15. 06. 2019 21:17

#	Modifying user name:	WinNT
#	Modification time:	15. 06. 2019 21:17

#	Program:	/corina/corina34_cracker 3.40 0067  02.08.2006

@<TRIPOS>MOLECULE
ASD08170634
  85   89    0    0    0
SMALL
NO_CHARGES


@<TRIPOS>ATOM
   1 N1            -0.0159     1.3150     0.0224 N.ar    
   2 C2             0.0017    -0.0034     0.0124 C.ar    
   3 C3            -1.2931    -0.7743     0.0243 C.3     
   4 C4            -4.2984    -0.6746     2.4294 C.3     
   5 C5            -5.5932    -1.4455     2.4412 C.2     
   6 N6            -5.8033    -2.5767     3.0361 N.2     
   7 N7            -6.9625    -3.0651     2.9277 N.2     
   8 C8            -7.8359    -2.3975     2.2358 C.2     
   9 S9            -7.0970    -0.9657     1.6538 S.3     
  10 N10           -9.1540    -2.7791     2.0098 N.am    
  11 C11           -3.4530    -1.1158     1.2328 C.3     
  12 C12           -2.1384    -0.3331     1.2208 C.3     
  13 C13            1.2122    -0.6808    -0.0095 C.ar    
  14 C14            2.3785     0.0690    -0.0202 C.ar    
  15 C15            2.2616     1.4575    -0.0083 C.ar    
  16 N16            1.0600     2.0148     0.0126 N.ar    
  17 N17            3.4043     2.2567    -0.0179 N.am    
  18 C18            3.2889     3.5963    -0.1113 C.2     
  19 O19            2.1992     4.1007    -0.2812 O.2     
  20 C20            4.5141     4.4673    -0.0047 C.3     
  21 C21            4.1152     5.9141    -0.1410 C.ar    
  22 C22            3.7797     6.6473     0.9819 C.ar    
  23 C23            3.4138     7.9744     0.8569 C.ar    
  24 C24            3.3838     8.5686    -0.3908 C.ar    
  25 C25            3.7202     7.8357    -1.5136 C.ar    
  26 C26            4.0903     6.5097    -1.3882 C.ar    
  27 C27           -9.6205    -3.9317     2.5297 C.2     
  28 O28           -8.8908    -4.6361     3.1947 O.2     
  29 C29          -11.0488    -4.3451     2.2847 C.3     
  30 C30          -11.3154    -5.6609     2.9693 C.ar    
  31 C31          -11.7760    -5.6812     4.2722 C.ar    
  32 C32          -12.0205    -6.8884     4.9003 C.ar    
  33 C33          -11.8047    -8.0749     4.2251 C.ar    
  34 C34          -11.3447    -8.0546     2.9214 C.ar    
  35 C35          -11.1045    -6.8477     2.2921 C.ar    
  36 C36          -11.1090    -9.3483     2.1854 C.3     
  37 N37          -12.3350    -9.7437     1.4877 N.am    
  38 C38          -12.3600   -10.8769     0.7586 C.2     
  39 C39          -13.6212   -11.2836     0.0410 C.3     
  40 O40          -11.3674   -11.5694     0.6801 O.2     
  41 C41          -13.3854   -12.5773    -0.6951 C.ar    
  42 C42          -13.5374   -12.6276    -2.0684 C.ar    
  43 C43          -14.7481   -11.4737     1.0582 C.3     
  44 C44          -13.3219   -13.8123    -2.7455 C.ar    
  45 C45          -12.9526   -14.9522    -2.0463 C.ar    
  46 C46          -12.8007   -14.8991    -0.6683 C.ar    
  47 C47          -13.0119   -13.7106     0.0034 C.ar    
  48 O48          -12.7404   -16.1190    -2.7100 O.3     
  49 H49           -1.8401    -0.5802    -0.8983 H       
  50 H50           -1.0805    -1.8405     0.1031 H       
  51 H51           -4.5110     0.3916     2.3505 H       
  52 H52           -3.7514    -0.8687     3.3520 H       
  53 H53           -9.7376    -2.2157     1.4779 H       
  54 H54           -3.2404    -2.1820     1.3116 H       
  55 H55           -4.0000    -0.9216     0.3102 H       
  56 H56           -1.5915    -0.5273     2.1434 H       
  57 H57           -2.3511     0.7331     1.1420 H       
  58 H58            1.2451    -1.7603    -0.0176 H       
  59 H59            3.3472    -0.4082    -0.0369 H       
  60 H60            4.2821     1.8485     0.0427 H       
  61 H61            4.9880     4.3107     0.9643 H       
  62 H62            5.2148     4.2073    -0.7981 H       
  63 H63            3.8032     6.1831     1.9568 H       
  64 H64            3.1510     8.5470     1.7341 H       
  65 H65            3.0972     9.6053    -0.4886 H       
  66 H66            3.6964     8.2998    -2.4885 H       
  67 H67            4.3531     5.9371    -2.2654 H       
  68 H68          -11.7206    -3.5852     2.6839 H       
  69 H69          -11.2174    -4.4524     1.2132 H       
  70 H70          -11.9447    -4.7541     4.7998 H       
  71 H71          -12.3798    -6.9042     5.9187 H       
  72 H72          -11.9950    -9.0179     4.7159 H       
  73 H73          -10.7452    -6.8319     1.2737 H       
  74 H74          -10.3061    -9.2129     1.4607 H       
  75 H75          -10.8291   -10.1253     2.8968 H       
  76 H76          -13.1289    -9.1898     1.5505 H       
  77 H77          -13.9010   -10.5066    -0.6704 H       
  78 H78          -13.8253   -11.7400    -2.6122 H       
  79 H79          -14.4682   -12.2506     1.7696 H       
  80 H80          -14.9186   -10.5379     1.5906 H       
  81 H81          -15.6603   -11.7678     0.5392 H       
  82 H82          -13.4411   -13.8512    -3.8182 H       
  83 H83          -12.5132   -15.7851    -0.1217 H       
  84 H84          -12.8937   -13.6688     1.0761 H       
  85 H85          -11.8278   -16.2436    -3.0044 H       
@<TRIPOS>BOND
   1    1    2 ar
   2    1   16 ar
   3    2    3 1
   4    2   13 ar
   5    3   12 1
   6    3   49 1
   7    3   50 1
   8    4    5 1
   9    4   11 1
  10    4   51 1
  11    4   52 1
  12    5    6 2
  13    5    9 1
  14    6    7 1
  15    7    8 2
  16    8    9 1
  17    8   10 1
  18   10   27 am
  19   10   53 1
  20   11   12 1
  21   11   54 1
  22   11   55 1
  23   12   56 1
  24   12   57 1
  25   13   14 ar
  26   13   58 1
  27   14   15 ar
  28   14   59 1
  29   15   16 ar
  30   15   17 1
  31   17   18 am
  32   17   60 1
  33   18   19 2
  34   18   20 1
  35   20   21 1
  36   20   61 1
  37   20   62 1
  38   21   22 ar
  39   21   26 ar
  40   22   23 ar
  41   22   63 1
  42   23   24 ar
  43   23   64 1
  44   24   25 ar
  45   24   65 1
  46   25   26 ar
  47   25   66 1
  48   26   67 1
  49   27   28 2
  50   27   29 1
  51   29   30 1
  52   29   68 1
  53   29   69 1
  54   30   31 ar
  55   30   35 ar
  56   31   32 ar
  57   31   70 1
  58   32   33 ar
  59   32   71 1
  60   33   34 ar
  61   33   72 1
  62   34   35 ar
  63   34   36 1
  64   35   73 1
  65   36   37 1
  66   36   74 1
  67   36   75 1
  68   37   38 am
  69   37   76 1
  70   38   39 1
  71   38   40 2
  72   39   41 1
  73   39   43 1
  74   39   77 1
  75   41   42 ar
  76   41   47 ar
  77   42   44 ar
  78   42   78 1
  79   43   79 1
  80   43   80 1
  81   43   81 1
  82   44   45 ar
  83   44   82 1
  84   45   46 ar
  85   45   48 1
  86   46   47 ar
  87   46   83 1
  88   47   84 1
  89   48   85 1

#	End of record

