#	Name: ASD09800072
#	Creating user name:	WinNT
#	Creation time:	15. 06. 2019 21:24

#	Modifying user name:	WinNT
#	Modification time:	15. 06. 2019 21:24

#	Program:	/corina/corina34_cracker 3.40 0067  02.08.2006

@<TRIPOS>MOLECULE
ASD09800072
  74   79    0    0    0
SMALL
NO_CHARGES


@<TRIPOS>ATOM
   1 C1             0.0877     1.6801     0.4167 C.ar    
   2 C2             0.0592     0.2850     0.6157 C.ar    
   3 C3             1.2265    -0.4239     0.6278 C.ar    
   4 C4             2.4524     0.2099     0.4459 C.ar    
   5 C5             2.5204     1.5718     0.2486 C.ar    
   6 C6             1.3314     2.3319     0.2309 C.ar    
   7 C7             1.3586     3.7213     0.0316 C.ar    
   8 C8             0.1920     4.4232     0.0195 C.ar    
   9 C9            -1.0318     3.7825     0.2028 C.ar    
  10 C10           -1.0959     2.4361     0.3934 C.ar    
  11 N11            3.7567     2.1954     0.0670 N.am    
  12 S12            4.9643     1.4160    -0.7555 S.o2    
  13 C13            5.4684     0.0466     0.2322 C.ar    
  14 O14            4.3667     0.8700    -1.9234 O.2     
  15 O15            6.0671     2.3114    -0.7927 O.2     
  16 C16            5.6932    -2.3173     0.5392 C.ar    
  17 C17            6.2582    -2.1028     1.7827 C.ar    
  18 C18            6.4240    -0.8142     2.2537 C.ar    
  19 C19            6.0288     0.2617     1.4784 C.ar    
  20 C20            5.2987    -1.2430    -0.2359 C.ar    
  21 C21            1.1868    -1.9151     0.8417 C.3     
  22 O22           -1.1274    -0.3533     0.7957 O.3     
  23 C23           -1.7723    -0.8188    -0.3016 C.ar    
  24 C24           -1.8316    -1.0854    -2.5931 C.ar    
  25 N25           -1.2381    -0.6484    -1.4988 N.ar    
  26 C26           -2.9980    -1.4825    -0.1592 C.ar    
  27 C27           -3.6457    -1.9542    -1.3027 C.ar    
  28 C28           -3.0453    -1.7442    -2.5332 C.ar    
  29 C29           -3.5961    -1.6808     1.1816 C.ar    
  30 C30           -4.8195    -2.3434     1.3223 C.ar    
  31 C31           -5.3384    -2.5053     2.5937 C.ar    
  32 N32           -4.6674    -2.0322     3.6325 N.ar    
  33 C33           -3.5098    -1.4081     3.4702 C.ar    
  34 N34           -2.9745    -1.2358     2.2718 N.ar    
  35 N35           -2.8404    -0.9286     4.5828 N.pl3   
  36 C36           -3.4131    -1.1139     5.9184 C.3     
  37 C37           -5.0019    -0.1785     7.6046 C.3     
  38 C38           -4.4038     0.0150     6.2097 C.3     
  39 C39           -2.2935    -1.0916     6.9610 C.3     
  40 C40           -2.8916    -1.2852     8.3559 C.3     
  41 C41           -3.8823    -0.1562     8.6472 C.3     
  42 N42           -4.4565    -0.3420     9.9864 N.3     
  43 Cl43           6.2367     1.8807     2.0694 Cl      
  44 H44            3.3615    -0.3730     0.4600 H       
  45 H45            2.3001     4.2308    -0.1110 H       
  46 H46            0.2155     5.4920    -0.1340 H       
  47 H47           -1.9431     4.3620     0.1893 H       
  48 H48           -2.0517     1.9522     0.5296 H       
  49 H49            3.9080     3.0851     0.4226 H       
  50 H50            5.5638    -3.3245     0.1715 H       
  51 H51            6.5663    -2.9426     2.3879 H       
  52 H52            6.8654    -0.6468     3.2251 H       
  53 H53            4.8574    -1.4111    -1.2072 H       
  54 H54            1.1005    -2.4182    -0.1214 H       
  55 H55            2.1027    -2.2355     1.3382 H       
  56 H56            0.3284    -2.1703     1.4630 H       
  57 H57           -1.3614    -0.9253    -3.5521 H       
  58 H58           -4.5916    -2.4704    -1.2295 H       
  59 H59           -3.5190    -2.0963    -3.4376 H       
  60 H60           -5.3469    -2.7196     0.4582 H       
  61 H61           -6.2812    -3.0120     2.7379 H       
  62 H62           -1.9922    -0.4699     4.4782 H       
  63 H63           -3.9310    -2.0721     5.9620 H       
  64 H64           -5.7077     0.6257     7.8121 H       
  65 H65           -5.5198    -1.1367     7.6481 H       
  66 H66           -3.8859     0.9731     6.1662 H       
  67 H67           -5.2014    -0.0009     5.4670 H       
  68 H68           -1.5877    -1.8959     6.7535 H       
  69 H69           -1.7756    -0.1335     6.9175 H       
  70 H70           -3.4095    -2.2433     8.3994 H       
  71 H71           -2.0940    -1.2692     9.0986 H       
  72 H72           -3.3644     0.8019     8.6036 H       
  73 H73           -3.7366    -0.3310    10.6933 H       
  74 H74           -5.1614     0.3542    10.1774 H       
@<TRIPOS>BOND
   1    1    2 ar
   2    1    6 ar
   3    1   10 ar
   4    2    3 ar
   5    2   22 1
   6    3    4 ar
   7    3   21 1
   8    4    5 ar
   9    4   44 1
  10    5    6 ar
  11    5   11 1
  12    6    7 ar
  13    7    8 ar
  14    7   45 1
  15    8    9 ar
  16    8   46 1
  17    9   10 ar
  18    9   47 1
  19   10   48 1
  20   11   12 am
  21   11   49 1
  22   12   13 1
  23   12   14 2
  24   12   15 2
  25   13   20 ar
  26   13   19 ar
  27   16   17 ar
  28   16   20 ar
  29   16   50 1
  30   17   18 ar
  31   17   51 1
  32   18   19 ar
  33   18   52 1
  34   19   43 1
  35   20   53 1
  36   21   54 1
  37   21   55 1
  38   21   56 1
  39   22   23 1
  40   23   26 ar
  41   23   25 ar
  42   24   25 ar
  43   24   28 ar
  44   24   57 1
  45   26   27 ar
  46   26   29 1
  47   27   28 ar
  48   27   58 1
  49   28   59 1
  50   29   30 ar
  51   29   34 ar
  52   30   31 ar
  53   30   60 1
  54   31   32 ar
  55   31   61 1
  56   32   33 ar
  57   33   34 ar
  58   33   35 1
  59   35   36 1
  60   35   62 1
  61   36   39 1
  62   36   38 1
  63   36   63 1
  64   37   38 1
  65   37   41 1
  66   37   64 1
  67   37   65 1
  68   38   66 1
  69   38   67 1
  70   39   40 1
  71   39   68 1
  72   39   69 1
  73   40   41 1
  74   40   70 1
  75   40   71 1
  76   41   42 1
  77   41   72 1
  78   42   73 1
  79   42   74 1

#	End of record

