#	Name: ASD01884172
#	Creating user name:	WinNT
#	Creation time:	15. 06. 2019 19:47

#	Modifying user name:	WinNT
#	Modification time:	15. 06. 2019 19:47

#	Program:	/corina/corina34_cracker 3.40 0067  02.08.2006

@<TRIPOS>MOLECULE
ASD01884172
  25   25    0    0    0
SMALL
NO_CHARGES


@<TRIPOS>ATOM
   1 C1            -0.0167     1.3780     0.0096 C.ar    
   2 C2             0.0021    -0.0041     0.0020 C.ar    
   3 C3             1.2083    -0.6791    -0.0131 C.ar    
   4 C4             2.3966     0.0287    -0.0206 C.ar    
   5 C5             2.3773     1.4120    -0.0130 C.ar    
   6 C6             1.1709     2.0859     0.0021 C.ar    
   7 C7             3.6717     2.1837    -0.0207 C.3     
   8 Br8            4.0470    -0.8942    -0.0407 Br      
   9 C9            -1.2927    -0.7751     0.0107 C.3     
  10 C10           -1.0846    -2.1133     0.7228 C.3     
  11 O11           -2.2922    -0.0200     0.6984 O.3     
  12 C12           -1.7452    -1.0284    -1.4287 C.3     
  13 H13           -0.9593     1.9050     0.0169 H       
  14 H14            1.2229    -1.7590    -0.0187 H       
  15 H15            1.1558     3.1658     0.0077 H       
  16 H16            3.9743     2.3753    -1.0502 H       
  17 H17            3.5327     3.1314     0.4995 H       
  18 H18            4.4442     1.6026     0.4830 H       
  19 H19           -0.7623    -1.9329     1.7483 H       
  20 H20           -2.0211    -2.6710     0.7291 H       
  21 H21           -0.3222    -2.6893     0.1983 H       
  22 H22           -3.1539    -0.4566     0.7427 H       
  23 H23           -0.9828    -1.6043    -1.9533 H       
  24 H24           -2.6817    -1.5861    -1.4225 H       
  25 H25           -1.8934    -0.0750    -1.9360 H       
@<TRIPOS>BOND
   1    1    2 ar
   2    1    6 ar
   3    1   13 1
   4    2    3 ar
   5    2    9 1
   6    3    4 ar
   7    3   14 1
   8    4    5 ar
   9    4    8 1
  10    5    6 ar
  11    5    7 1
  12    6   15 1
  13    7   16 1
  14    7   17 1
  15    7   18 1
  16    9   10 1
  17    9   11 1
  18    9   12 1
  19   10   19 1
  20   10   20 1
  21   10   21 1
  22   11   22 1
  23   12   23 1
  24   12   24 1
  25   12   25 1

#	End of record

