#	Name: ASD01916114
#	Creating user name:	WinNT
#	Creation time:	15. 06. 2019 20:06

#	Modifying user name:	WinNT
#	Modification time:	15. 06. 2019 20:06

#	Program:	/corina/corina34_cracker 3.40 0067  02.08.2006

@<TRIPOS>MOLECULE
ASD01916114
  38   40    0    0    0
SMALL
NO_CHARGES


@<TRIPOS>ATOM
   1 C1            -0.0169     1.3986     0.0097 C.ar    
   2 C2             0.0021    -0.0041     0.0020 C.ar    
   3 C3            -1.2103    -0.6683     0.0101 C.ar    
   4 C4            -2.3777     0.0967     0.0254 C.ar    
   5 N5            -3.6220    -0.5309     0.0344 N.am    
   6 C6             1.2115     2.1345     0.0020 C.1     
   7 C7             2.2186     2.7378    -0.0044 C.1     
   8 C8             3.4470     3.4736    -0.0122 C.ar    
   9 C9             3.4286     4.8706    -0.0045 C.ar    
  10 C10            4.6177     5.5736    -0.0116 C.ar    
  11 N11           -2.3029     1.4194     0.0318 N.ar    
  12 N12           -1.1804     2.0418     0.0188 N.ar    
  13 C13            4.6723     2.7968    -0.0217 C.ar    
  14 C14            5.8269     4.8966    -0.0268 C.ar    
  15 N15           -4.8061     0.1448     0.0494 N.3     
  16 C16           -5.8675    -0.7891    -0.3932 C.3     
  17 C17           -5.2697    -2.1611     0.0021 C.3     
  18 C18           -3.7806    -1.8674     0.0234 C.2     
  19 C19            5.8532     3.5136    -0.0287 C.ar    
  20 O20           -2.8909    -2.6914     0.0359 O.2     
  21 C21           -7.1751    -0.5257     0.3561 C.3     
  22 C22           -6.0786    -0.6998    -1.9059 C.3     
  23 F23            4.6998     1.4461    -0.0235 F       
  24 F24            4.6018     6.9245    -0.0042 F       
  25 H25            0.9349    -0.5482    -0.0102 H       
  26 H26           -1.2529    -1.7474     0.0043 H       
  27 H27            2.4870     5.3995     0.0066 H       
  28 H28            6.7533     5.4517    -0.0330 H       
  29 H29           -5.0041     0.5070     0.9701 H       
  30 H30           -5.6224    -2.4689     0.9865 H       
  31 H31           -5.5026    -2.9165    -0.7483 H       
  32 H32            6.7993     2.9929    -0.0356 H       
  33 H33           -7.5183     0.4867     0.1432 H       
  34 H34           -7.9305    -1.2413     0.0313 H       
  35 H35           -7.0082    -0.6350     1.4277 H       
  36 H36           -5.1443    -0.9309    -2.4175 H       
  37 H37           -6.8448    -1.4136    -2.2086 H       
  38 H38           -6.3973     0.3087    -2.1694 H       
@<TRIPOS>BOND
   1    1    2 ar
   2    1    6 1
   3    1   12 ar
   4    2    3 ar
   5    2   25 1
   6    3    4 ar
   7    3   26 1
   8    4   11 ar
   9    4    5 1
  10    5   15 1
  11    5   18 am
  12    6    7 3
  13    7    8 1
  14    8    9 ar
  15    8   13 ar
  16    9   10 ar
  17    9   27 1
  18   10   24 1
  19   10   14 ar
  20   11   12 ar
  21   13   19 ar
  22   13   23 1
  23   14   19 ar
  24   14   28 1
  25   15   16 1
  26   15   29 1
  27   16   17 1
  28   16   22 1
  29   16   21 1
  30   17   18 1
  31   17   30 1
  32   17   31 1
  33   18   20 2
  34   19   32 1
  35   21   33 1
  36   21   34 1
  37   21   35 1
  38   22   36 1
  39   22   37 1
  40   22   38 1

#	End of record

