#	Name: ASD01910386
#	Creating user name:	WinNT
#	Creation time:	15. 06. 2019 19:55

#	Modifying user name:	WinNT
#	Modification time:	15. 06. 2019 19:55

#	Program:	/corina/corina34_cracker 3.40 0067  02.08.2006

@<TRIPOS>MOLECULE
ASD01910386
  55   58    0    0    0
SMALL
NO_CHARGES


@<TRIPOS>ATOM
   1 C1            -7.4261   -11.3206    -0.5606 C.ar    
   2 C2            -6.1891   -10.5994    -0.5764 C.1     
   3 C3            -5.1750   -10.0081    -0.5893 C.1     
   4 C4            -3.9379    -9.2869    -0.6050 C.ar    
   5 C5            -3.7053    -8.3175    -1.5871 C.ar    
   6 C6            -2.5255    -7.6297    -1.6012 C.ar    
   7 C7            -1.5501    -7.8942    -0.6352 C.ar    
   8 C8            -1.7817    -8.8629     0.3460 C.ar    
   9 C9            -2.9636    -9.5471     0.3651 C.ar    
  10 C10           -0.2749    -7.1507    -0.6514 C.2     
  11 O11           -0.2718    -5.9536    -0.8639 O.2     
  12 N12            0.8860    -7.7989    -0.4307 N.am    
  13 C13           -7.6617   -12.2895     0.4188 C.ar    
  14 C14           -8.8555   -12.9800     0.4276 C.ar    
  15 C15           -9.8186   -12.7160    -0.5304 C.ar    
  16 C16           -9.5924   -11.7582    -1.5033 C.ar    
  17 C17           -8.4061   -11.0551    -1.5211 C.ar    
  18 C18            0.8924    -9.2286    -0.0919 C.3     
  19 C19            1.8190    -9.9621    -1.0667 C.3     
  20 C20            3.2007    -9.3045    -1.0436 C.3     
  21 C21            3.0814    -7.8470    -1.4948 C.3     
  22 C22            2.1694    -7.0907    -0.5304 C.3     
  23 O23            3.7276    -9.3503     0.2839 O.3     
  24 C24            4.1246   -10.0447    -1.9761 C.ar    
  25 C25            4.7982   -11.1677    -1.5337 C.ar    
  26 C26            5.6458   -11.8471    -2.3886 C.ar    
  27 C27            5.8199   -11.4028    -3.6870 C.ar    
  28 C28            5.1453   -10.2785    -4.1293 C.ar    
  29 C29            4.2938    -9.6035    -3.2754 C.ar    
  30 Cl30           6.8846   -12.2551    -4.7611 Cl      
  31 C31            4.6088   -11.6512    -0.1190 C.3     
  32 F32            5.2480   -12.8853     0.0415 F       
  33 F33            5.1600   -10.7216     0.7693 F       
  34 F34            3.2427   -11.7957     0.1455 F       
  35 H35           -4.4584    -8.1136    -2.3338 H       
  36 H36           -2.3458    -6.8816    -2.3591 H       
  37 H37           -1.0275    -9.0672     1.0915 H       
  38 H38           -3.1423   -10.2953     1.1230 H       
  39 H39           -6.9107   -12.4971     1.1667 H       
  40 H40           -9.0390   -13.7290     1.1838 H       
  41 H41          -10.7512   -13.2605    -0.5190 H       
  42 H42          -10.3486   -11.5578    -2.2480 H       
  43 H43           -8.2310   -10.3079    -2.2809 H       
  44 H44            1.2556    -9.3609     0.9272 H       
  45 H45           -0.1179    -9.6287    -0.1769 H       
  46 H46            1.9081   -11.0065    -0.7677 H       
  47 H47            1.4058    -9.9055    -2.0738 H       
  48 H48            4.0691    -7.3859    -1.5005 H       
  49 H49            2.6564    -7.8102    -2.4978 H       
  50 H50            2.0025    -6.0798    -0.9022 H       
  51 H51            2.6344    -7.0479     0.4546 H       
  52 H52            4.5508    -8.8559     0.3976 H       
  53 H53            6.1723   -12.7243    -2.0428 H       
  54 H54            5.2810    -9.9310    -5.1428 H       
  55 H55            3.7672    -8.7259    -3.6205 H       
@<TRIPOS>BOND
   1    1    2 1
   2    1   13 ar
   3    1   17 ar
   4    2    3 3
   5    3    4 1
   6    4    5 ar
   7    4    9 ar
   8    5    6 ar
   9    5   35 1
  10    6    7 ar
  11    6   36 1
  12    7    8 ar
  13    7   10 1
  14    8    9 ar
  15    8   37 1
  16    9   38 1
  17   10   11 2
  18   10   12 am
  19   12   18 1
  20   12   22 1
  21   13   14 ar
  22   13   39 1
  23   14   15 ar
  24   14   40 1
  25   15   16 ar
  26   15   41 1
  27   16   17 ar
  28   16   42 1
  29   17   43 1
  30   18   19 1
  31   18   44 1
  32   18   45 1
  33   19   20 1
  34   19   46 1
  35   19   47 1
  36   20   21 1
  37   20   23 1
  38   20   24 1
  39   21   22 1
  40   21   48 1
  41   21   49 1
  42   22   50 1
  43   22   51 1
  44   23   52 1
  45   24   25 ar
  46   24   29 ar
  47   25   26 ar
  48   25   31 1
  49   26   27 ar
  50   26   53 1
  51   27   28 ar
  52   27   30 1
  53   28   29 ar
  54   28   54 1
  55   29   55 1
  56   31   32 1
  57   31   33 1
  58   31   34 1

#	End of record

