#	Name: ASD01914013
#	Creating user name:	WinNT
#	Creation time:	15. 06. 2019 20:02

#	Modifying user name:	WinNT
#	Modification time:	15. 06. 2019 20:02

#	Program:	/corina/corina34_cracker 3.40 0067  02.08.2006

@<TRIPOS>MOLECULE
ASD01914013
  39   41    0    0    0
SMALL
NO_CHARGES


@<TRIPOS>ATOM
   1 C1            -0.0142     1.3729     0.0941 C.ar    
   2 C2             0.0057    -0.0094     0.1171 C.ar    
   3 C3             1.2115    -0.6860     0.1147 C.ar    
   4 C4             2.3826     1.4051     0.0660 C.ar    
   5 C5             1.1714     2.0816     0.0685 C.ar    
   6 O6             3.5503     2.1000     0.0413 O.3     
   7 C7             4.7589     1.3377     0.0402 C.3     
   8 C8             5.9416     2.2712     0.0114 C.ar    
   9 N9             7.1626     1.7716     0.0058 N.ar    
  10 C10            8.2296     2.5430    -0.0194 C.ar    
  11 C11            8.1006     3.9322    -0.0414 C.ar    
  12 C12            6.8171     4.4923    -0.0361 C.ar    
  13 C13            5.7290     3.6381    -0.0145 C.ar    
  14 C14            9.2983     4.7979    -0.0692 C.2     
  15 N15           10.5282     4.2468    -0.0736 N.am    
  16 O16            9.1740     6.0071    -0.0882 O.2     
  17 C17           11.6610     5.0630    -0.1853 C.ar    
  18 C18            2.3998     0.0181     0.0892 C.ar    
  19 C19           11.6075     6.3866     0.2281 C.ar    
  20 C20           12.7260     7.1904     0.1172 C.ar    
  21 C21           13.9004     6.6770    -0.4060 C.ar    
  22 C22           13.9578     5.3566    -0.8201 C.ar    
  23 C23           12.8432     4.5466    -0.7054 C.ar    
  24 F24           12.8988     3.2585    -1.1089 F       
  25 F25           14.9923     7.4654    -0.5131 F       
  26 H26           -0.9574     1.8990     0.0916 H       
  27 H27           -0.9222    -0.5616     0.1375 H       
  28 H28            1.2244    -1.7657     0.1331 H       
  29 H29            1.1553     3.1613     0.0501 H       
  30 H30            4.8023     0.7240     0.9400 H       
  31 H31            4.7822     0.6946    -0.8396 H       
  32 H32            9.2131     2.0966    -0.0228 H       
  33 H33            6.6802     5.5635    -0.0526 H       
  34 H34            4.7243     4.0342    -0.0102 H       
  35 H35           10.6289     3.2849     0.0006 H       
  36 H36            3.3414    -0.5109     0.0873 H       
  37 H37           10.6918     6.7884     0.6361 H       
  38 H38           12.6838     8.2205     0.4387 H       
  39 H39           14.8749     4.9582    -1.2283 H       
@<TRIPOS>BOND
   1    1    2 ar
   2    1    5 ar
   3    1   26 1
   4    2    3 ar
   5    2   27 1
   6    3   18 ar
   7    3   28 1
   8    4    5 ar
   9    4    6 1
  10    4   18 ar
  11    5   29 1
  12    6    7 1
  13    7    8 1
  14    7   30 1
  15    7   31 1
  16    8    9 ar
  17    8   13 ar
  18    9   10 ar
  19   10   11 ar
  20   10   32 1
  21   11   12 ar
  22   11   14 1
  23   12   13 ar
  24   12   33 1
  25   13   34 1
  26   14   15 am
  27   14   16 2
  28   15   17 1
  29   15   35 1
  30   17   19 ar
  31   17   23 ar
  32   18   36 1
  33   19   20 ar
  34   19   37 1
  35   20   21 ar
  36   20   38 1
  37   21   22 ar
  38   21   25 1
  39   22   23 ar
  40   22   39 1
  41   23   24 1

#	End of record

