#	Name: ASD09116277
#	Creating user name:	WinNT
#	Creation time:	15. 06. 2019 21:21

#	Modifying user name:	WinNT
#	Modification time:	15. 06. 2019 21:21

#	Program:	/corina/corina34_cracker 3.40 0067  02.08.2006

@<TRIPOS>MOLECULE
ASD09116277
  74   80    0    0    0
SMALL
NO_CHARGES


@<TRIPOS>ATOM
   1 N1            -0.5146     3.8989     0.5624 N.pl3   
   2 N2            -1.0096     5.0770     1.1445 N.2     
   3 C3             0.8309     4.0372     0.5048 C.2     
   4 N4             1.1395     5.2114     1.0129 N.2     
   5 C5             0.0248     5.8415     1.4005 C.2     
   6 N6             1.7235     3.1085     0.0016 N.pl3   
   7 C7             3.0803     3.4280    -0.1021 C.ar    
   8 C8             4.0416     2.4293    -0.0070 C.ar    
   9 C9             5.7688     4.0707    -0.3047 C.ar    
  10 C10            4.8172     5.0634    -0.4091 C.ar    
  11 C11            3.4727     4.7424    -0.3061 C.ar    
  12 C12           -1.2614     2.8001     0.1337 C.ar    
  13 N13           -0.7832     2.0012    -0.8085 N.ar    
  14 N14           -1.4344     0.9826    -1.2455 N.ar    
  15 C15           -2.6318     0.6711    -0.7760 C.ar    
  16 C16           -3.2075     1.4453     0.2355 C.ar    
  17 C17           -2.5108     2.5398     0.7024 C.ar    
  18 C18           -3.4075    -0.4697    -1.3156 C.ar    
  19 C19           -4.7385    -0.2666    -1.6835 C.ar    
  20 C20           -5.3317     1.1114    -1.5757 C.3     
  21 C21           -5.6736     1.4589    -0.1294 C.3     
  22 C22           -4.5388     1.0530     0.8072 C.3     
  23 C23           -2.8316    -1.7277    -1.4541 C.ar    
  24 C24           -3.5887    -2.7766    -1.9389 C.ar    
  25 C25           -4.9133    -2.5760    -2.2827 C.ar    
  26 C26           -5.4878    -1.3233    -2.1544 C.ar    
  27 N27           -0.0286     7.1076     1.9826 N.pl3   
  28 C28            5.3778     2.7539    -0.1087 C.ar    
  29 C29            7.2421     4.3746    -0.4025 C.3     
  30 C30            7.4504     5.7537    -1.0287 C.3     
  31 N31            6.6057     6.7239    -0.3142 N.3     
  32 C32            5.1932     6.5037    -0.6400 C.3     
  33 C33            7.0089     8.1020    -0.6247 C.3     
  34 C34            6.0338     9.0813     0.0346 C.3     
  35 C35            8.4189     8.3566    -0.0846 C.3     
  36 C36            8.8094     9.8110    -0.3571 C.3     
  37 N37            7.8468    10.7080     0.2949 N.3     
  38 C38            6.4934    10.5147    -0.2414 C.3     
  39 C39            8.2667    12.1102     0.1714 C.3     
  40 H40            1.4080     2.2353    -0.2794 H       
  41 H41            3.7433     1.4027     0.1464 H       
  42 H42            2.7271     5.5197    -0.3853 H       
  43 H43           -2.9194     3.1770     1.4727 H       
  44 H44           -4.6153     1.8389    -1.9574 H       
  45 H45           -6.2394     1.1569    -2.1775 H       
  46 H46           -5.8392     2.5332    -0.0480 H       
  47 H47           -6.5834     0.9333     0.1605 H       
  48 H48           -4.5625    -0.0270     0.9519 H       
  49 H49           -4.6748     1.5460     1.7698 H       
  50 H50           -1.7975    -1.8839    -1.1844 H       
  51 H51           -3.1453    -3.7551    -2.0500 H       
  52 H52           -5.5027    -3.4017    -2.6531 H       
  53 H53           -6.5228    -1.1736    -2.4242 H       
  54 H54            0.7894     7.6056     2.1364 H       
  55 H55           -0.8839     7.4903     2.2336 H       
  56 H56            6.1253     1.9779    -0.0350 H       
  57 H57            7.6815     4.3599     0.5949 H       
  58 H58            7.7270     3.6193    -1.0210 H       
  59 H59            8.4974     6.0427    -0.9376 H       
  60 H60            7.1657     5.7250    -2.0805 H       
  61 H61            5.0208     6.7579    -1.6858 H       
  62 H62            4.5743     7.1430    -0.0104 H       
  63 H63            6.9993     8.2498    -1.7046 H       
  64 H64            5.0355     8.9336    -0.3773 H       
  65 H65            6.0139     8.9063     1.1103 H       
  66 H66            8.4365     8.1701     0.9892 H       
  67 H67            9.1247     7.6910    -0.5817 H       
  68 H68            9.8073     9.9994     0.0389 H       
  69 H69            8.8050     9.9929    -1.4318 H       
  70 H70            6.4999    10.6934    -1.3166 H       
  71 H71            5.8092    11.2143     0.2388 H       
  72 H72            8.3347    12.3776    -0.8831 H       
  73 H73            7.5362    12.7529     0.6628 H       
  74 H74            9.2407    12.2407     0.6429 H       
@<TRIPOS>BOND
   1    1    2 1
   2    1    3 1
   3    1   12 1
   4    2    5 2
   5    3    4 2
   6    3    6 1
   7    4    5 1
   8    5   27 1
   9    6    7 1
  10    6   40 1
  11    7    8 ar
  12    7   11 ar
  13    8   28 ar
  14    8   41 1
  15    9   10 ar
  16    9   29 1
  17    9   28 ar
  18   10   11 ar
  19   10   32 1
  20   11   42 1
  21   12   13 ar
  22   12   17 ar
  23   13   14 ar
  24   14   15 ar
  25   15   16 ar
  26   15   18 1
  27   16   17 ar
  28   16   22 1
  29   17   43 1
  30   18   19 ar
  31   18   23 ar
  32   19   20 1
  33   19   26 ar
  34   20   21 1
  35   20   44 1
  36   20   45 1
  37   21   22 1
  38   21   46 1
  39   21   47 1
  40   22   48 1
  41   22   49 1
  42   23   24 ar
  43   23   50 1
  44   24   25 ar
  45   24   51 1
  46   25   26 ar
  47   25   52 1
  48   26   53 1
  49   27   54 1
  50   27   55 1
  51   28   56 1
  52   29   30 1
  53   29   57 1
  54   29   58 1
  55   30   31 1
  56   30   59 1
  57   30   60 1
  58   31   32 1
  59   31   33 1
  60   32   61 1
  61   32   62 1
  62   33   34 1
  63   33   35 1
  64   33   63 1
  65   34   38 1
  66   34   64 1
  67   34   65 1
  68   35   36 1
  69   35   66 1
  70   35   67 1
  71   36   37 1
  72   36   68 1
  73   36   69 1
  74   37   38 1
  75   37   39 1
  76   38   70 1
  77   38   71 1
  78   39   72 1
  79   39   73 1
  80   39   74 1

#	End of record

