#	Name: ASD01209010
#	Creating user name:	WinNT
#	Creation time:	15. 06. 2019 19:10

#	Modifying user name:	WinNT
#	Modification time:	15. 06. 2019 19:10

#	Program:	/corina/corina34_cracker 3.40 0067  02.08.2006

@<TRIPOS>MOLECULE
ASD01209010
  53   57    0    0    0
SMALL
NO_CHARGES


@<TRIPOS>ATOM
   1 S1            -0.2823     1.2513     0.4484 S.o2    
   2 C2            -2.5547    -1.1717    -4.1701 C.3     
   3 C3            -3.5786    -0.9358    -5.2999 C.3     
   4 C4            -4.9185    -0.4743    -4.7233 C.3     
   5 C5            -4.7579     0.9189    -4.1118 C.3     
   6 C6            -6.1061     1.4377    -3.6826 C.2     
   7 O7            -6.3708     1.5355    -2.5030 O.2     
   8 N8            -3.8711     0.8421    -2.9481 N.pl3   
   9 C9            -2.6840     1.5124    -2.8075 C.ar    
  10 C10           -2.1630     1.1550    -1.5491 C.ar    
  11 C11           -3.1225     0.2285    -0.9565 C.2     
  12 N12           -4.1032     0.0777    -1.8000 N.2     
  13 N13           -7.0178     1.7928    -4.6095 N.am    
  14 C14           -1.9753     2.3980    -3.6158 C.ar    
  15 C15           -0.7765     2.9135    -3.1764 C.ar    
  16 C16           -0.2653     2.5578    -1.9326 C.ar    
  17 C17           -0.9423     1.6919    -1.1248 C.ar    
  18 C18           -8.2162     2.3798    -4.2171 C.2     
  19 S19           -9.5033     2.8979    -5.3026 S.3     
  20 C20          -10.4481     3.4409    -3.9174 C.2     
  21 C21           -9.7444     3.1960    -2.8099 C.2     
  22 N22           -8.5669     2.6282    -2.9926 N.2     
  23 F23          -11.6733     4.0078    -3.9679 F       
  24 C24           -1.4703     1.9247     1.6424 C.3     
  25 C25           -1.1212     1.8101     3.1277 C.3     
  26 C26           -1.0533     3.1693     2.4286 C.3     
  27 Cl27           0.1059     4.0171    -4.1848 Cl      
  28 O28           -0.3170    -0.1693     0.4576 O.2     
  29 O29            0.9504     1.9545     0.5207 O.2     
  30 C30           -3.7222    -2.3290    -5.9636 C.3     
  31 C31           -2.2758    -2.8787    -5.8954 C.3     
  32 C32           -1.7500    -2.3955    -4.5554 C.2     
  33 O33           -0.8556    -2.8944    -3.9155 O.2     
  34 H34           -1.8970    -0.3075    -4.0771 H       
  35 H35           -3.0737    -1.3484    -3.2280 H       
  36 H36           -3.1987    -0.2059    -6.0148 H       
  37 H37           -5.6632    -0.4384    -5.5185 H       
  38 H38           -5.2430    -1.1740    -3.9531 H       
  39 H39           -4.3280     1.5934    -4.8523 H       
  40 H40           -3.0364    -0.2446     0.0105 H       
  41 H41           -6.8382     1.6391    -5.5502 H       
  42 H42           -2.3645     2.6794    -4.5831 H       
  43 H43            0.6768     2.9709    -1.6035 H       
  44 H44          -10.1167     3.4427    -1.8266 H       
  45 H45           -2.5201     1.8334     1.3637 H       
  46 H46           -1.9414     1.6437     3.8260 H       
  47 H47           -0.1777     1.3300     3.3873 H       
  48 H48           -0.0652     3.5835     2.2283 H       
  49 H49           -1.8288     3.8972     2.6670 H       
  50 H50           -4.4043    -2.9609    -5.3948 H       
  51 H51           -4.0523    -2.2334    -6.9980 H       
  52 H52           -2.2804    -3.9681    -5.9321 H       
  53 H53           -1.6752    -2.4720    -6.7090 H       
@<TRIPOS>BOND
   1    1   28 2
   2    1   29 2
   3    1   17 1
   4    1   24 1
   5    2    3 1
   6    2   32 1
   7    2   34 1
   8    2   35 1
   9    3    4 1
  10    3   30 1
  11    3   36 1
  12    4    5 1
  13    4   37 1
  14    4   38 1
  15    5    8 1
  16    5    6 1
  17    5   39 1
  18    6    7 2
  19    6   13 am
  20    8    9 1
  21    8   12 1
  22    9   10 ar
  23    9   14 ar
  24   10   11 1
  25   10   17 ar
  26   11   12 2
  27   11   40 1
  28   13   18 1
  29   13   41 1
  30   14   15 ar
  31   14   42 1
  32   15   16 ar
  33   15   27 1
  34   16   17 ar
  35   16   43 1
  36   18   19 1
  37   18   22 2
  38   19   20 1
  39   20   21 2
  40   20   23 1
  41   21   22 1
  42   21   44 1
  43   24   25 1
  44   24   26 1
  45   24   45 1
  46   25   26 1
  47   25   46 1
  48   25   47 1
  49   26   48 1
  50   26   49 1
  51   30   31 1
  52   30   50 1
  53   30   51 1
  54   31   32 1
  55   31   52 1
  56   31   53 1
  57   32   33 2

#	End of record

