#	Name: ASD01811976
#	Creating user name:	WinNT
#	Creation time:	15. 06. 2019 19:27

#	Modifying user name:	WinNT
#	Modification time:	15. 06. 2019 19:27

#	Program:	/corina/corina34_cracker 3.40 0067  02.08.2006

@<TRIPOS>MOLECULE
ASD01811976
  83   85    0    0    0
SMALL
NO_CHARGES


@<TRIPOS>ATOM
   1 S1            -4.3018     5.1202    -2.9111 S.o2    
   2 O2             1.8515     6.8907    -1.9166 O.3     
   3 O3             1.2579     0.2278    -6.4362 O.3     
   4 O4             1.5897     6.5175    -6.2424 O.2     
   5 O5            -5.6491     5.4102    -3.2573 O.2     
   6 O6            -3.4701     4.3604    -3.7772 O.2     
   7 N7             1.1595    -4.4427    -5.0821 N.3     
   8 N8            -3.5699     6.6041    -2.8402 N.am    
   9 C9             2.5194    -4.8121    -5.4969 C.3     
  10 C10            0.6534    -5.3643    -4.0562 C.3     
  11 C11            1.1124    -3.0524    -4.6102 C.3     
  12 C12            2.4854    -6.1660    -6.2087 C.3     
  13 C13           -0.8639    -5.2089    -3.9349 C.3     
  14 C14            1.1625    -2.1045    -5.8102 C.3     
  15 C15            3.9018    -6.5508    -6.6407 C.3     
  16 C16           -1.4058    -6.2474    -2.9506 C.3     
  17 C17            1.2111    -0.6575    -5.3154 C.3     
  18 C18            2.3504     6.4852    -3.0895 C.2     
  19 C19            1.3334     6.1953    -3.9488 C.2     
  20 C20            3.8177     6.3675    -3.4125 C.3     
  21 C21            0.0888     6.4594    -3.1988 C.ar    
  22 C22            4.3206     7.6920    -3.9902 C.3     
  23 C23           -2.9230    -6.0920    -2.8292 C.3     
  24 C24            3.8679    -7.9047    -7.3525 C.3     
  25 C25            0.5013     6.8929    -1.9307 C.ar    
  26 C26            1.4506     5.7192    -5.3344 C.2     
  27 C27            5.8102     7.5725    -4.3182 C.3     
  28 C28           -1.2648     6.3630    -3.5027 C.ar    
  29 C29            1.3996     4.2727    -5.6246 C.ar    
  30 C30           -2.2061     6.6978    -2.5437 C.ar    
  31 C31            1.3048     1.5576    -6.1694 C.ar    
  32 C32           -0.4556     7.2251    -0.9791 C.ar    
  33 C33           -1.7956     7.1282    -1.2843 C.ar    
  34 C34            1.3990     3.8231    -6.9481 C.ar    
  35 C35            1.3576     3.3487    -4.5767 C.ar    
  36 C36            1.3518     2.4730    -7.2145 C.ar    
  37 C37            1.3106     2.0004    -4.8516 C.ar    
  38 C38            6.3131     8.8969    -4.8959 C.3     
  39 C39           -4.2030     4.4853    -1.2148 C.3     
  40 H40            2.9106    -4.0544    -6.1758 H       
  41 H41            3.1615    -4.8794    -4.6186 H       
  42 H42            0.8921    -6.3895    -4.3391 H       
  43 H43            1.1200    -5.1336    -3.0985 H       
  44 H44            0.1885    -2.8880    -4.0557 H       
  45 H45            1.9657    -2.8604    -3.9597 H       
  46 H46           -1.0988    -4.2080    -3.5730 H       
  47 H47           -1.3238    -5.3594    -4.9116 H       
  48 H48            2.0942    -6.9237    -5.5298 H       
  49 H49            1.8434    -6.0988    -7.0870 H       
  50 H50            2.0524    -2.3158    -6.4032 H       
  51 H51            0.2738    -2.2488    -6.4245 H       
  52 H52            4.2931    -5.7931    -7.3196 H       
  53 H53            4.5439    -6.6181    -5.7625 H       
  54 H54           -1.1708    -7.2483    -3.3125 H       
  55 H55           -0.9459    -6.0969    -1.9739 H       
  56 H56            2.0998    -0.5132    -4.7011 H       
  57 H57            0.3213    -0.4462    -4.7224 H       
  58 H58            4.3722     6.1337    -2.5037 H       
  59 H59            3.9661     5.5726    -4.1434 H       
  60 H60            3.7661     7.9259    -4.8990 H       
  61 H61            4.1721     8.4869    -3.2593 H       
  62 H62           -3.1580    -5.0910    -2.4673 H       
  63 H63           -3.3829    -6.2425    -3.8059 H       
  64 H64           -3.3091    -6.8318    -2.1280 H       
  65 H65            3.4766    -8.6624    -6.6736 H       
  66 H66            3.2258    -7.8374    -8.2308 H       
  67 H67            4.8769    -8.1788    -7.6603 H       
  68 H68            6.3647     7.3386    -3.4094 H       
  69 H69            5.9587     6.7776    -5.0491 H       
  70 H70           -1.5799     6.0296    -4.4804 H       
  71 H71           -0.1485     7.5597     0.0007 H       
  72 H72           -2.5341     7.3886    -0.5406 H       
  73 H73            1.4351     4.5336    -7.7606 H       
  74 H74            1.3624     3.6919    -3.5527 H       
  75 H75            1.3472     2.1250    -8.2368 H       
  76 H76            1.2740     1.2860    -4.0425 H       
  77 H77            5.7586     9.1308    -5.8047 H       
  78 H78            6.1646     9.6918    -4.1650 H       
  79 H79            7.3744     8.8118    -5.1295 H       
  80 H80           -4.0870     7.4082    -3.0042 H       
  81 H81           -4.7461     3.5426    -1.1475 H       
  82 H82           -3.1587     4.3228    -0.9478 H       
  83 H83           -4.6448     5.2088    -0.5296 H       
@<TRIPOS>BOND
   1    1    5 2
   2    1    6 2
   3    1    8 am
   4    1   39 1
   5    2   18 1
   6    2   25 1
   7    3   17 1
   8    3   31 1
   9    4   26 2
  10    7    9 1
  11    7   10 1
  12    7   11 1
  13    8   30 1
  14    8   80 1
  15    9   12 1
  16    9   40 1
  17    9   41 1
  18   10   13 1
  19   10   42 1
  20   10   43 1
  21   11   14 1
  22   11   44 1
  23   11   45 1
  24   12   15 1
  25   12   48 1
  26   12   49 1
  27   13   16 1
  28   13   46 1
  29   13   47 1
  30   14   17 1
  31   14   50 1
  32   14   51 1
  33   15   24 1
  34   15   52 1
  35   15   53 1
  36   16   23 1
  37   16   54 1
  38   16   55 1
  39   17   56 1
  40   17   57 1
  41   18   19 2
  42   18   20 1
  43   19   21 1
  44   19   26 1
  45   20   22 1
  46   20   58 1
  47   20   59 1
  48   21   25 ar
  49   21   28 ar
  50   22   27 1
  51   22   60 1
  52   22   61 1
  53   23   62 1
  54   23   63 1
  55   23   64 1
  56   24   65 1
  57   24   66 1
  58   24   67 1
  59   25   32 ar
  60   26   29 1
  61   27   38 1
  62   27   68 1
  63   27   69 1
  64   28   30 ar
  65   28   70 1
  66   29   34 ar
  67   29   35 ar
  68   30   33 ar
  69   31   36 ar
  70   31   37 ar
  71   32   33 ar
  72   32   71 1
  73   33   72 1
  74   34   36 ar
  75   34   73 1
  76   35   37 ar
  77   35   74 1
  78   36   75 1
  79   37   76 1
  80   38   77 1
  81   38   78 1
  82   38   79 1
  83   39   81 1
  84   39   82 1
  85   39   83 1

#	End of record

