#	Name: ASD01800004
#	Creating user name:	WinNT
#	Creation time:	15. 06. 2019 19:23

#	Modifying user name:	WinNT
#	Modification time:	15. 06. 2019 19:23

#	Program:	/corina/corina34_cracker 3.40 0067  02.08.2006

@<TRIPOS>MOLECULE
ASD01800004
  51   54    0    0    0
SMALL
NO_CHARGES


@<TRIPOS>ATOM
   1 C1            -0.0229     1.3780     0.0107 C.ar    
   2 C2             0.0051    -0.0127     0.0515 C.ar    
   3 C3             1.2256    -0.6843     0.0336 C.ar    
   4 C4             2.4111     0.0312    -0.0246 C.ar    
   5 C5             2.3865     1.4163    -0.0653 C.ar    
   6 C6             1.1692     2.0936    -0.0477 C.ar    
   7 C7             1.1437     3.5769    -0.0918 C.ar    
   8 C8            -1.2639    -0.7797     0.1143 C.ar    
   9 C9             2.3362     4.2951    -0.1508 C.ar    
  10 C10            2.3067     5.6744    -0.1916 C.ar    
  11 C11            1.0963     6.3437    -0.1740 C.ar    
  12 C12           -0.0905     5.6356    -0.1150 C.ar    
  13 C13           -0.0728     4.2559    -0.0801 C.ar    
  14 C14           -1.2380    -2.1721     0.1552 C.ar    
  15 C15           -2.4212    -2.8804     0.2135 C.ar    
  16 C16           -3.6312    -2.2103     0.2315 C.ar    
  17 C17           -3.6627    -0.8281     0.1906 C.ar    
  18 C18           -2.4853    -0.1097     0.1384 C.ar    
  19 O19            3.6005    -0.6270    -0.0414 O.3     
  20 C20            3.8684    -1.3780    -1.1269 C.2     
  21 N21            5.0694    -1.9768    -1.2523 N.am    
  22 C22            5.3185    -2.8269    -2.3382 C.ar    
  23 O23            3.0274    -1.5158    -1.9931 O.2     
  24 C24            4.7627    -2.5488    -3.5797 C.ar    
  25 C25            5.0090    -3.3866    -4.6495 C.ar    
  26 C26            5.8116    -4.5058    -4.4839 C.ar    
  27 C27            6.3668    -4.7846    -3.2437 C.ar    
  28 C28            6.1259    -3.9444    -2.1744 C.ar    
  29 O29            6.0537    -5.3304    -5.5377 O.3     
  30 C30            6.8888    -6.4644    -5.2956 C.3     
  31 H31           -0.9679     1.9007     0.0199 H       
  32 H32            1.2479    -1.7636     0.0656 H       
  33 H33            3.3120     1.9711    -0.1103 H       
  34 H34            3.2818     3.7736    -0.1643 H       
  35 H35            3.2304     6.2322    -0.2370 H       
  36 H36            1.0778     7.4230    -0.2060 H       
  37 H37           -1.0327     6.1631    -0.1007 H       
  38 H38           -1.0000     3.7040    -0.0341 H       
  39 H39           -0.2939    -2.6963     0.1409 H       
  40 H40           -2.4023    -3.9598     0.2449 H       
  41 H41           -4.5546    -2.7684     0.2772 H       
  42 H42           -4.6102    -0.3099     0.2042 H       
  43 H43           -2.5111     0.9695     0.1066 H       
  44 H44            5.7612    -1.8194    -0.5909 H       
  45 H45            4.1376    -1.6776    -3.7087 H       
  46 H46            4.5765    -3.1705    -5.6152 H       
  47 H47            6.9909    -5.6565    -3.1152 H       
  48 H48            6.5586    -4.1613    -1.2089 H       
  49 H49            7.8684    -6.1283    -4.9556 H       
  50 H50            6.4346    -7.0933    -4.5299 H       
  51 H51            7.0005    -7.0366    -6.2166 H       
@<TRIPOS>BOND
   1    1    2 ar
   2    1    6 ar
   3    1   31 1
   4    2    3 ar
   5    2    8 1
   6    3    4 ar
   7    3   32 1
   8    4    5 ar
   9    4   19 1
  10    5    6 ar
  11    5   33 1
  12    6    7 1
  13    7    9 ar
  14    7   13 ar
  15    8   14 ar
  16    8   18 ar
  17    9   10 ar
  18    9   34 1
  19   10   11 ar
  20   10   35 1
  21   11   12 ar
  22   11   36 1
  23   12   13 ar
  24   12   37 1
  25   13   38 1
  26   14   15 ar
  27   14   39 1
  28   15   16 ar
  29   15   40 1
  30   16   17 ar
  31   16   41 1
  32   17   18 ar
  33   17   42 1
  34   18   43 1
  35   19   20 1
  36   20   21 am
  37   20   23 2
  38   21   22 1
  39   21   44 1
  40   22   24 ar
  41   22   28 ar
  42   24   25 ar
  43   24   45 1
  44   25   26 ar
  45   25   46 1
  46   26   27 ar
  47   26   29 1
  48   27   28 ar
  49   27   47 1
  50   28   48 1
  51   29   30 1
  52   30   49 1
  53   30   50 1
  54   30   51 1

#	End of record

