#	Name: ASD01148912
#	Creating user name:	WinNT
#	Creation time:	15. 06. 2019 19:03

#	Modifying user name:	WinNT
#	Modification time:	15. 06. 2019 19:03

#	Program:	/corina/corina34_cracker 3.40 0067  02.08.2006

@<TRIPOS>MOLECULE
ASD01148912
  41   43    0    0    0
SMALL
NO_CHARGES


@<TRIPOS>ATOM
   1 C1            -0.0661     1.2884    -0.0282 C.ar    
   2 C2            -0.0199    -0.0925     0.0263 C.ar    
   3 C3             1.1975    -0.7449     0.0216 C.ar    
   4 C4             2.3756    -0.0126    -0.0385 C.ar    
   5 C5             2.3259     1.3738    -0.0936 C.ar    
   6 C6             1.1055     2.0204    -0.0880 C.ar    
   7 S7            -1.6213     2.1167    -0.0287 S.o2    
   8 O8            -1.4000     3.3854    -0.6293 O.2     
   9 O9            -2.5738     1.1816    -0.5161 O.2     
  10 N10           -2.0207     2.4106     1.5513 N.am    
  11 C11           -1.2020     3.3201     2.3568 C.3     
  12 N12            3.6123    -0.6716    -0.0431 N.pl3   
  13 C13            4.4997    -0.7045    -1.0909 C.2     
  14 C14            5.5769    -1.4434    -0.7033 C.2     
  15 C15            5.3403    -1.8715     0.6138 C.2     
  16 C16            4.1402    -1.3838     0.9957 C.2     
  17 C17            3.4917    -1.5931     2.3398 C.3     
  18 C18            4.3182    -0.0539    -2.4058 C.ar    
  19 C19            5.3413     0.7270    -2.9491 C.ar    
  20 C20            5.1655     1.3314    -4.1776 C.ar    
  21 C21            3.9781     1.1650    -4.8704 C.ar    
  22 C22            2.9610     0.3921    -4.3365 C.ar    
  23 C23            3.1266    -0.2219    -3.1121 C.ar    
  24 Cl24           3.7638     1.9290    -6.4144 Cl      
  25 Cl25           6.8299     0.9373    -2.0810 Cl      
  26 H26           -0.9366    -0.6615     0.0731 H       
  27 H27            1.2330    -1.8234     0.0649 H       
  28 H28            3.2407     1.9461    -0.1401 H       
  29 H29            1.0662     3.0989    -0.1309 H       
  30 H30           -2.7967     1.9806     1.9435 H       
  31 H31           -1.6167     3.3880     3.3625 H       
  32 H32           -0.1816     2.9403     2.4094 H       
  33 H33           -1.1984     4.3087     1.8978 H       
  34 H34            6.4512    -1.6604    -1.2989 H       
  35 H35            6.0017    -2.4780     1.2147 H       
  36 H36            2.8799    -2.4947     2.3116 H       
  37 H37            4.2629    -1.7010     3.1025 H       
  38 H38            2.8632    -0.7348     2.5775 H       
  39 H39            5.9554     1.9354    -4.5992 H       
  40 H40            2.0371     0.2665    -4.8816 H       
  41 H41            2.3337    -0.8278    -2.6991 H       
@<TRIPOS>BOND
   1    1    2 ar
   2    1    6 ar
   3    1    7 1
   4    2    3 ar
   5    2   26 1
   6    3    4 ar
   7    3   27 1
   8    4    5 ar
   9    4   12 1
  10    5    6 ar
  11    5   28 1
  12    6   29 1
  13    7    8 2
  14    7    9 2
  15    7   10 am
  16   10   11 1
  17   10   30 1
  18   11   31 1
  19   11   32 1
  20   11   33 1
  21   12   13 1
  22   12   16 1
  23   13   14 2
  24   13   18 1
  25   14   15 1
  26   14   34 1
  27   15   16 2
  28   15   35 1
  29   16   17 1
  30   17   36 1
  31   17   37 1
  32   17   38 1
  33   18   19 ar
  34   18   23 ar
  35   19   20 ar
  36   19   25 1
  37   20   21 ar
  38   20   39 1
  39   21   22 ar
  40   21   24 1
  41   22   23 ar
  42   22   40 1
  43   23   41 1

#	End of record

