#	Name: ASD01903091
#	Creating user name:	WinNT
#	Creation time:	15. 06. 2019 19:54

#	Modifying user name:	WinNT
#	Modification time:	15. 06. 2019 19:54

#	Program:	/corina/corina34_cracker 3.40 0067  02.08.2006

@<TRIPOS>MOLECULE
ASD01903091
  27   29    0    0    0
SMALL
NO_CHARGES


@<TRIPOS>ATOM
   1 C1            -0.0160     1.2953     0.0222 C.2     
   2 N2             0.0003    -0.0031     0.0037 N.2     
   3 C3            -1.1638    -0.6218     0.0266 C.2     
   4 C4            -2.2432     0.2360     0.0678 C.2     
   5 S5            -1.6190     1.8833     0.0811 S.3     
   6 C6            -1.2994    -2.0968     0.0098 C.2     
   7 N7             1.1111     2.0934     0.0027 N.pl3   
   8 C8            -2.2857    -2.8511     0.6777 C.2     
   9 N9            -2.0732    -4.1141     0.4208 N.2     
  10 N10           -0.9535    -4.2175    -0.4133 N.pl3   
  11 C11           -0.4950    -2.9747    -0.6606 C.2     
  12 C12            0.9833     3.4760    -0.0937 C.ar    
  13 N13           -0.2134     4.0133    -0.2733 N.ar    
  14 C14           -0.3783     5.3188    -0.3698 C.ar    
  15 C15            0.7001     6.1768    -0.2867 C.ar    
  16 C16            1.9725     5.6534    -0.0985 C.ar    
  17 C17            2.1132     4.2813     0.0052 C.ar    
  18 C18           -3.6234    -0.1444     0.0992 C.1     
  19 N19           -4.7183    -0.4462     0.1240 N.1     
  20 H20            1.9918     1.6903     0.0562 H       
  21 H21           -3.0783    -2.4540     1.2945 H       
  22 H22           -0.5753    -5.0418    -0.7573 H       
  23 H23            0.3578    -2.7193    -1.2720 H       
  24 H24           -1.3697     5.7215    -0.5162 H       
  25 H25            0.5556     7.2440    -0.3675 H       
  26 H26            2.8323     6.3034    -0.0302 H       
  27 H27            3.0882     3.8406     0.1522 H       
@<TRIPOS>BOND
   1    1    2 2
   2    1    7 1
   3    1    5 1
   4    2    3 1
   5    3    4 2
   6    3    6 1
   7    4    5 1
   8    4   18 1
   9    6    8 1
  10    6   11 2
  11    7   12 1
  12    7   20 1
  13    8    9 2
  14    8   21 1
  15    9   10 1
  16   10   11 1
  17   10   22 1
  18   11   23 1
  19   12   13 ar
  20   12   17 ar
  21   13   14 ar
  22   14   15 ar
  23   14   24 1
  24   15   16 ar
  25   15   25 1
  26   16   17 ar
  27   16   26 1
  28   17   27 1
  29   18   19 3

#	End of record

