#	Name: ASD01940679
#	Creating user name:	WinNT
#	Creation time:	15. 06. 2019 20:13

#	Modifying user name:	WinNT
#	Modification time:	15. 06. 2019 20:13

#	Program:	/corina/corina34_cracker 3.40 0067  02.08.2006

@<TRIPOS>MOLECULE
ASD01940679
  40   42    0    0    0
SMALL
NO_CHARGES


@<TRIPOS>ATOM
   1 C1             0.3467     0.9739     1.1871 C.ar    
   2 C2            -0.1454     0.2355     0.1267 C.ar    
   3 C3             0.6354     0.0256    -0.9972 C.ar    
   4 C4             1.9142     0.5549    -1.0643 C.ar    
   5 C5             2.4137     1.2973    -0.0024 C.ar    
   6 C6             1.6255     1.5072     1.1280 C.ar    
   7 N7             2.1242     2.2559     2.2023 N.am    
   8 S8             1.7296     1.8393     3.7558 S.o2    
   9 C9             2.3508     0.1452     3.9418 C.3     
  10 O10            2.4810     2.7372     4.5610 O.2     
  11 O11            0.3088     1.8541     3.7724 O.2     
  12 F12            0.1497    -0.6970    -2.0302 F       
  13 F13            2.6746     0.3485    -2.1618 F       
  14 N14            3.7069     1.8337    -0.0668 N.pl3   
  15 C15            4.8087     1.0413     0.2624 C.ar    
  16 C16            6.0795     1.6084     0.3233 C.ar    
  17 C17            4.6345    -0.3104     0.5343 C.ar    
  18 C18            5.7200    -1.0953     0.8605 C.ar    
  19 C19            6.9957    -0.5321     0.9174 C.ar    
  20 C20            7.1689     0.8275     0.6487 C.ar    
  21 F21            6.2452     2.9237     0.0631 F       
  22 C22            8.1602    -1.3714     1.2673 C.2     
  23 C23            2.0369    -0.5826     5.2505 C.3     
  24 C24            1.3215    -0.9867     3.9598 C.3     
  25 C25            9.3719    -0.8350     1.3211 C.2     
  26 H26           -0.2670     1.1393     2.0603 H       
  27 H27           -1.1416    -0.1790     0.1754 H       
  28 H28            2.7006     3.0182     2.0361 H       
  29 H29            3.3134    -0.0568     3.4719 H       
  30 H30            3.8367     2.7553    -0.3401 H       
  31 H31            3.6475    -0.7464     0.4903 H       
  32 H32            5.5831    -2.1454     1.0723 H       
  33 H33            8.1549     1.2659     0.6917 H       
  34 H34            8.0246    -2.4216     1.4793 H       
  35 H35            2.7928    -1.2638     5.6413 H       
  36 H36            1.4571    -0.0435     5.9996 H       
  37 H37            0.2711    -0.7134     3.8598 H       
  38 H38            1.6068    -1.9337     3.5015 H       
  39 H39            9.5075     0.2153     1.1091 H       
  40 H40           10.2231    -1.4485     1.5769 H       
@<TRIPOS>BOND
   1    1    2 ar
   2    1    6 ar
   3    1   26 1
   4    2    3 ar
   5    2   27 1
   6    3    4 ar
   7    3   12 1
   8    4    5 ar
   9    4   13 1
  10    5    6 ar
  11    5   14 1
  12    6    7 1
  13    7    8 am
  14    7   28 1
  15    8    9 1
  16    8   10 2
  17    8   11 2
  18    9   23 1
  19    9   24 1
  20    9   29 1
  21   14   15 1
  22   14   30 1
  23   15   16 ar
  24   15   17 ar
  25   16   21 1
  26   16   20 ar
  27   17   18 ar
  28   17   31 1
  29   18   19 ar
  30   18   32 1
  31   19   20 ar
  32   19   22 1
  33   20   33 1
  34   22   25 2
  35   22   34 1
  36   23   24 1
  37   23   35 1
  38   23   36 1
  39   24   37 1
  40   24   38 1
  41   25   39 1
  42   25   40 1

#	End of record

