#	Name: ASD08150474
#	Creating user name:	WinNT
#	Creation time:	15. 06. 2019 21:16

#	Modifying user name:	WinNT
#	Modification time:	15. 06. 2019 21:16

#	Program:	/corina/corina34_cracker 3.40 0067  02.08.2006

@<TRIPOS>MOLECULE
ASD08150474
  48   53    0    0    0
SMALL
NO_CHARGES


@<TRIPOS>ATOM
   1 N1             0.8819     2.9132    -1.5980 N.am    
   2 C2             1.3108     2.2889    -2.7121 C.2     
   3 C3             2.5206     1.5653    -2.7160 C.2     
   4 C4             3.2739     1.4879    -1.5895 C.2     
   5 C5             2.8257     2.1435    -0.4155 C.ar    
   6 C6             3.5690     2.0952     0.7793 C.ar    
   7 N7             3.1531     2.7010     1.8608 N.ar    
   8 C8             2.0070     3.3974     1.8976 C.ar    
   9 C9             1.1951     3.4999     0.7412 C.ar    
  10 C10            1.6166     2.8554    -0.4455 C.ar    
  11 C11            0.0020     4.2273     0.7902 C.ar    
  12 C12           -0.3743     4.8419     1.9736 C.ar    
  13 C13            0.4347     4.7363     3.1138 C.ar    
  14 C14            1.5979     4.0325     3.0817 C.ar    
  15 O15            0.6434     2.3502    -3.7306 O.2     
  16 C16           -1.6382     5.6153     2.0344 C.ar    
  17 C17           -0.3206     3.6306    -1.6215 C.ar    
  18 C18           -0.3143     4.9892    -1.9091 C.ar    
  19 C19           -1.5011     5.6947    -1.9316 C.ar    
  20 C20           -2.6971     5.0485    -1.6672 C.ar    
  21 C21           -2.7057     3.6937    -1.3802 C.ar    
  22 C22           -1.5216     2.9831    -1.3627 C.ar    
  23 F23           -3.8571     5.7407    -1.6889 F       
  24 C24           -2.7692     5.1791     1.3250 C.ar    
  25 N25           -3.8972     5.8415     1.3602 N.ar    
  26 C26           -4.0297     6.9657     2.0726 C.ar    
  27 C27           -2.9334     7.4706     2.8159 C.ar    
  28 C28           -1.7138     6.7716     2.7967 C.ar    
  29 C29           -5.2497     7.6637     2.0976 C.ar    
  30 C30           -5.3608     8.8058     2.8295 C.ar    
  31 C31           -4.2816     9.3005     3.5591 C.ar    
  32 C32           -3.0843     8.6527     3.5604 C.ar    
  33 H33            2.8490     1.0706    -3.6181 H       
  34 H34            4.2013     0.9344    -1.5876 H       
  35 H35            4.4995     1.5475     0.8030 H       
  36 H36           -0.6215     4.3097    -0.0878 H       
  37 H37            0.1302     5.2208     4.0298 H       
  38 H38            2.2087     3.9613     3.9695 H       
  39 H39            0.6183     5.4937    -2.1146 H       
  40 H40           -1.4966     6.7513    -2.1552 H       
  41 H41           -3.6394     3.1916    -1.1740 H       
  42 H42           -1.5287     1.9266    -1.1388 H       
  43 H43           -2.7062     4.2759     0.7363 H       
  44 H44           -0.8591     7.1287     3.3521 H       
  45 H45           -6.0962     7.2949     1.5374 H       
  46 H46           -6.3007     9.3375     2.8447 H       
  47 H47           -4.3967    10.2093     4.1313 H       
  48 H48           -2.2551     9.0452     4.1303 H       
@<TRIPOS>BOND
   1    1    2 am
   2    1   10 1
   3    1   17 1
   4    2    3 1
   5    2   15 2
   6    3    4 2
   7    3   33 1
   8    4    5 1
   9    4   34 1
  10    5    6 ar
  11    5   10 ar
  12    6    7 ar
  13    6   35 1
  14    7    8 ar
  15    8    9 ar
  16    8   14 ar
  17    9   10 ar
  18    9   11 ar
  19   11   12 ar
  20   11   36 1
  21   12   13 ar
  22   12   16 1
  23   13   14 ar
  24   13   37 1
  25   14   38 1
  26   16   24 ar
  27   16   28 ar
  28   17   18 ar
  29   17   22 ar
  30   18   19 ar
  31   18   39 1
  32   19   20 ar
  33   19   40 1
  34   20   21 ar
  35   20   23 1
  36   21   22 ar
  37   21   41 1
  38   22   42 1
  39   24   25 ar
  40   24   43 1
  41   25   26 ar
  42   26   27 ar
  43   26   29 ar
  44   27   28 ar
  45   27   32 ar
  46   28   44 1
  47   29   30 ar
  48   29   45 1
  49   30   31 ar
  50   30   46 1
  51   31   32 ar
  52   31   47 1
  53   32   48 1

#	End of record

