#	Name: ASD02508195
#	Creating user name:	WinNT
#	Creation time:	15. 06. 2019 20:23

#	Modifying user name:	WinNT
#	Modification time:	15. 06. 2019 20:23

#	Program:	/corina/corina34_cracker 3.40 0067  02.08.2006

@<TRIPOS>MOLECULE
ASD02508195
  42   44    0    0    0
SMALL
NO_CHARGES


@<TRIPOS>ATOM
   1 C1             0.8243     0.8077     0.9417 C.ar    
   2 C2             0.5898    -0.5130     0.5600 C.ar    
   3 C3            -0.7062    -0.9363     0.3095 C.ar    
   4 C4            -1.7575    -0.0499     0.4388 C.ar    
   5 C5            -1.5237     1.2608     0.8172 C.ar    
   6 C6            -0.2363     1.6903     1.0743 C.ar    
   7 S7            -3.4041    -0.5900     0.1198 S.o2    
   8 N8            -4.2358    -0.4973     1.5488 N.am    
   9 C9            -5.1052     0.6510     1.8171 C.3     
  10 N10            2.2018     0.9324     1.1201 N.am    
  11 C11            2.7550    -0.2674     0.8538 C.2     
  12 O12            1.7914    -1.1390     0.5170 O.3     
  13 O13           -3.9832     0.3773    -0.7451 O.2     
  14 O14           -3.3176    -1.9706    -0.2052 O.2     
  15 C15            2.9169     2.1458     1.5232 C.3     
  16 O16            3.9429    -0.5210     0.9100 O.2     
  17 C17           -6.5465     0.2154     1.7539 C.ar    
  18 C18           -7.1821    -0.2384     2.8945 C.ar    
  19 C19           -2.6775     2.2205     0.9545 C.3     
  20 C20           -4.1023    -1.5634     2.5446 C.3     
  21 C21           -7.2347     0.2750     0.5565 C.ar    
  22 C22           -8.5567    -0.1246     0.4985 C.ar    
  23 C23           -9.1905    -0.5841     1.6378 C.ar    
  24 C24           -8.5042    -0.6380     2.8365 C.ar    
  25 H25           -0.8935    -1.9578     0.0133 H       
  26 H26           -0.0557     2.7133     1.3698 H       
  27 H27           -4.8885     1.0468     2.8093 H       
  28 H28           -4.9263     1.4245     1.0702 H       
  29 H29            2.9906     2.1799     2.6102 H       
  30 H30            3.9176     2.1383     1.0913 H       
  31 H31            2.3745     3.0221     1.1682 H       
  32 H32           -6.6456    -0.2811     3.8309 H       
  33 H33           -3.1361     2.0993     1.9358 H       
  34 H34           -2.3147     3.2427     0.8467 H       
  35 H35           -3.4162     2.0136     0.1802 H       
  36 H36           -3.2788    -1.3293     3.2193 H       
  37 H37           -5.0274    -1.6456     3.1152 H       
  38 H38           -3.9014    -2.5086     2.0403 H       
  39 H39           -6.7395     0.6340    -0.3337 H       
  40 H40           -9.0946    -0.0774    -0.4369 H       
  41 H41          -10.2236    -0.8959     1.5925 H       
  42 H42           -8.9993    -0.9970     3.7266 H       
@<TRIPOS>BOND
   1    1    2 ar
   2    1   10 1
   3    1    6 ar
   4    2    3 ar
   5    2   12 1
   6    3    4 ar
   7    3   25 1
   8    4    5 ar
   9    4    7 1
  10    5    6 ar
  11    5   19 1
  12    6   26 1
  13    7    8 am
  14    7   13 2
  15    7   14 2
  16    8    9 1
  17    8   20 1
  18    9   17 1
  19    9   27 1
  20    9   28 1
  21   10   11 am
  22   10   15 1
  23   11   12 1
  24   11   16 2
  25   15   29 1
  26   15   30 1
  27   15   31 1
  28   17   18 ar
  29   17   21 ar
  30   18   24 ar
  31   18   32 1
  32   19   33 1
  33   19   34 1
  34   19   35 1
  35   20   36 1
  36   20   37 1
  37   20   38 1
  38   21   22 ar
  39   21   39 1
  40   22   23 ar
  41   22   40 1
  42   23   24 ar
  43   23   41 1
  44   24   42 1

#	End of record

