#	Name: ASD00842158
#	Creating user name:	WinNT
#	Creation time:	15. 06. 2019 18:43

#	Modifying user name:	WinNT
#	Modification time:	15. 06. 2019 18:43

#	Program:	/corina/corina34_cracker 3.40 0067  02.08.2006

@<TRIPOS>MOLECULE
ASD00842158
  99  104    0    0    0
SMALL
NO_CHARGES


@<TRIPOS>ATOM
   1 F1             6.0484    -1.6560    -2.0443 F       
   2 C2             0.9590     1.5332    -0.4391 C.ar    
   3 C3             1.2738     0.2012    -0.6642 C.ar    
   4 C4             1.2257    -0.7072     0.3835 C.ar    
   5 C5             0.8647    -0.2834     1.6475 C.ar    
   6 C6             0.5508     1.0450     1.8693 C.ar    
   7 C7             0.5984     1.9522     0.8272 C.ar    
   8 C8             1.5667    -2.1552     0.1423 C.3     
   9 C9             1.3206    -2.9731     1.3920 C.2     
  10 C10            0.7523    -2.7082    -1.0290 C.3     
  11 C11           -0.7157    -2.4902    -0.7674 C.2     
  12 N12           -1.6335    -2.9925    -1.6170 N.am    
  13 O13           -1.0713    -1.8627     0.2077 O.2     
  14 C14           -3.0638    -2.6968    -1.4443 C.3     
  15 C15           -3.6208    -2.1897    -2.7788 C.3     
  16 N16           -3.3106    -3.1613    -3.8360 N.3     
  17 C17           -1.8603    -3.2983    -4.0250 C.3     
  18 C18           -1.2306    -3.8458    -2.7452 C.3     
  19 C19           -3.9737    -2.7983    -5.0956 C.3     
  20 C20           -3.5300    -3.7585    -6.2027 C.3     
  21 C21           -4.2698    -3.4136    -7.4972 C.3     
  22 N22           -5.7178    -3.5246    -7.2794 N.3     
  23 C23           -6.1746    -2.5783    -6.2537 C.3     
  24 C24           -5.4917    -2.8983    -4.9221 C.3     
  25 C25           -6.4551    -3.3357    -8.5358 C.3     
  26 O26            0.2575    -3.1237     1.9561 O.2     
  27 N27            2.5001    -3.5012     1.7592 N.am    
  28 C28            3.0478    -2.3145    -0.1168 C.ar    
  29 C29            3.5352    -3.1348     0.8955 C.ar    
  30 C30            3.8817    -1.8208    -1.0957 C.ar    
  31 C31            5.2288    -2.1383    -1.0847 C.ar    
  32 C32            5.7366    -2.9618    -0.0747 C.ar    
  33 C33            4.8867    -3.4585     0.9132 C.ar    
  34 C34            2.4569    -6.1365     2.5513 C.ar    
  35 C35            1.2103    -6.5407     2.0953 C.ar    
  36 C36            3.5067    -7.0347     2.5833 C.ar    
  37 C37            3.3181    -8.3366     2.1612 C.ar    
  38 C38            2.0731    -8.7457     1.7043 C.ar    
  39 C39            1.0184    -7.8469     1.6716 C.ar    
  40 O40            1.8881   -10.0266     1.2896 O.3     
  41 O41            0.1782    -5.6571     2.0645 O.3     
  42 C42           -1.0768    -6.1421     1.5832 C.3     
  43 C43            3.0188   -10.8982     1.3513 C.3     
  44 C44           -7.9256    -3.7016    -8.3242 C.3     
  45 C45           -8.6936    -3.5048    -9.6328 C.3     
  46 S46            2.7034    -4.4749     3.0832 S.o2    
  47 O47            4.0718    -4.3704     3.4517 O.2     
  48 O48            1.6345    -4.1747     3.9701 O.2     
  49 C49            7.1290    -3.2955    -0.0553 C.1     
  50 N50            8.2336    -3.5603    -0.0400 N.1     
  51 O51            1.6283    -0.2134    -1.9089 O.3     
  52 C52            2.0775     0.1347    -4.2578 C.3     
  53 C53            1.5474     0.7500    -2.9612 C.3     
  54 H54            1.0000     2.2431    -1.2519 H       
  55 H55            0.8271    -0.9901     2.4633 H       
  56 H56            0.2681     1.3743     2.8582 H       
  57 H57            0.3528     2.9891     1.0029 H       
  58 H58            1.0385    -2.1929    -1.9458 H       
  59 H59            0.9478    -3.7752    -1.1357 H       
  60 H60           -3.5919    -3.6031    -1.1478 H       
  61 H61           -3.1895    -1.9299    -0.6799 H       
  62 H62           -4.7013    -2.0703    -2.7001 H       
  63 H63           -3.1651    -1.2298    -3.0218 H       
  64 H64           -1.6641    -3.9829    -4.8502 H       
  65 H65           -1.4291    -2.3230    -4.2507 H       
  66 H66           -0.1448    -3.8413    -2.8403 H       
  67 H67           -1.5814    -4.8630    -2.5706 H       
  68 H68           -3.7037    -1.7781    -5.3685 H       
  69 H69           -2.4559    -3.6608    -6.3603 H       
  70 H70           -3.7641    -4.7825    -5.9116 H       
  71 H71           -4.0245    -2.3942    -7.7951 H       
  72 H72           -3.9668    -4.1046    -8.2838 H       
  73 H73           -5.9204    -1.5628    -6.5574 H       
  74 H74           -7.2551    -2.6626    -6.1372 H       
  75 H75           -5.7566    -3.9087    -4.6108 H       
  76 H76           -5.8191    -2.1860    -4.1647 H       
  77 H77           -6.3812    -2.2938    -8.8473 H       
  78 H78           -6.0286    -3.9767    -9.3073 H       
  79 H79            3.4838    -1.1854    -1.8730 H       
  80 H80            5.2792    -4.0944     1.6929 H       
  81 H81            4.4763    -6.7182     2.9386 H       
  82 H82            4.1403    -9.0364     2.1865 H       
  83 H83            0.0487    -8.1634     1.3167 H       
  84 H84           -1.8120    -5.3379     1.6110 H       
  85 H85           -0.9615    -6.4936     0.5579 H       
  86 H86           -1.4143    -6.9648     2.2135 H       
  87 H87            3.8185   -10.5006     0.7264 H       
  88 H88            3.3654   -10.9712     2.3821 H       
  89 H89            2.7349   -11.8875     0.9924 H       
  90 H90           -7.9996    -4.7435    -8.0127 H       
  91 H91           -8.3521    -3.0605    -7.5527 H       
  92 H92           -8.6196    -2.4628    -9.9443 H       
  93 H93           -8.2670    -4.1458   -10.4043 H       
  94 H94           -9.7411    -3.7654    -9.4820 H       
  95 H95            3.0861    -0.2448    -4.0941 H       
  96 H96            1.4265    -0.6841    -4.5642 H       
  97 H97            2.0976     0.8947    -5.0390 H       
  98 H98            0.5088     1.0505    -3.0996 H       
  99 H99            2.1466     1.6227    -2.7016 H       
@<TRIPOS>BOND
   1    1   31 1
   2    2    3 ar
   3    2    7 ar
   4    2   54 1
   5    3    4 ar
   6    3   51 1
   7    4    5 ar
   8    4    8 1
   9    5    6 ar
  10    5   55 1
  11    6    7 ar
  12    6   56 1
  13    7   57 1
  14    8    9 1
  15    8   10 1
  16    8   28 1
  17    9   26 2
  18    9   27 am
  19   10   11 1
  20   10   58 1
  21   10   59 1
  22   11   12 am
  23   11   13 2
  24   12   14 1
  25   12   18 1
  26   14   15 1
  27   14   60 1
  28   14   61 1
  29   15   16 1
  30   15   62 1
  31   15   63 1
  32   16   17 1
  33   16   19 1
  34   17   18 1
  35   17   64 1
  36   17   65 1
  37   18   66 1
  38   18   67 1
  39   19   20 1
  40   19   24 1
  41   19   68 1
  42   20   21 1
  43   20   69 1
  44   20   70 1
  45   21   22 1
  46   21   71 1
  47   21   72 1
  48   22   23 1
  49   22   25 1
  50   23   24 1
  51   23   73 1
  52   23   74 1
  53   24   75 1
  54   24   76 1
  55   25   44 1
  56   25   77 1
  57   25   78 1
  58   27   46 am
  59   27   29 1
  60   28   29 ar
  61   28   30 ar
  62   29   33 ar
  63   30   31 ar
  64   30   79 1
  65   31   32 ar
  66   32   33 ar
  67   32   49 1
  68   33   80 1
  69   34   35 ar
  70   34   36 ar
  71   34   46 1
  72   35   41 1
  73   35   39 ar
  74   36   37 ar
  75   36   81 1
  76   37   38 ar
  77   37   82 1
  78   38   39 ar
  79   38   40 1
  80   39   83 1
  81   40   43 1
  82   41   42 1
  83   42   84 1
  84   42   85 1
  85   42   86 1
  86   43   87 1
  87   43   88 1
  88   43   89 1
  89   44   45 1
  90   44   90 1
  91   44   91 1
  92   45   92 1
  93   45   93 1
  94   45   94 1
  95   46   47 2
  96   46   48 2
  97   49   50 3
  98   51   53 1
  99   52   53 1
 100   52   95 1
 101   52   96 1
 102   52   97 1
 103   53   98 1
 104   53   99 1

#	End of record

