#	Name: ASD01812635
#	Creating user name:	WinNT
#	Creation time:	15. 06. 2019 19:28

#	Modifying user name:	WinNT
#	Modification time:	15. 06. 2019 19:28

#	Program:	/corina/corina34_cracker 3.40 0067  02.08.2006

@<TRIPOS>MOLECULE
ASD01812635
  61   65    0    0    0
SMALL
NO_CHARGES


@<TRIPOS>ATOM
   1 O1            -0.0163     1.3523     0.0095 O.3     
   2 C2             0.0097     0.0100     0.2037 C.ar    
   3 C3             1.2216    -0.6601     0.2774 C.ar    
   4 C4             1.2502    -2.0266     0.4746 C.ar    
   5 C5             0.0680    -2.7399     0.6006 C.ar    
   6 C6            -1.1405    -2.0895     0.5297 C.ar    
   7 C7            -1.1882    -0.7059     0.3368 C.ar    
   8 C8            -2.5721    -2.5555     0.6243 C.3     
   9 N9            -3.4040    -1.3569     0.4672 N.am    
  10 C10           -2.6004    -0.2907     0.3104 C.2     
  11 C11           -4.8685    -1.3255     0.4906 C.3     
  12 O12           -2.9854     0.8519     0.1538 O.2     
  13 C13            1.2359     1.9974    -0.2310 C.3     
  14 C14            1.0015     3.2892    -1.0167 C.3     
  15 C15            0.1294     4.1849    -0.2395 C.1     
  16 C16            1.9045     2.3273     1.1050 C.3     
  17 C17            3.2453     3.0180     0.8476 C.3     
  18 C18            3.0109     4.3098     0.0619 C.3     
  19 C19            2.3423     3.9799    -1.2742 C.3     
  20 C20           -5.3438    -1.1118     1.9046 C.ar    
  21 C21           -5.5385     0.1727     2.3793 C.ar    
  22 C22           -5.9737     0.3743     3.6735 C.ar    
  23 C23           -6.2174    -0.7192     4.5021 C.ar    
  24 C24           -6.0201    -2.0110     4.0184 C.ar    
  25 C25           -5.5893    -2.2010     2.7210 C.ar    
  26 C26           -6.6850    -0.5087     5.8944 C.ar    
  27 N27           -0.5436     4.8761     0.3603 N.1     
  28 F28            1.0757     3.1786     1.8437 F       
  29 C29           -6.8841     0.7788     6.3854 C.ar    
  30 N30           -7.2989     0.9700     7.6216 N.ar    
  31 C31           -7.5413    -0.0414     8.4394 C.ar    
  32 C32           -7.3660    -1.3551     8.0213 C.ar    
  33 C33           -6.9375    -1.6011     6.7307 C.ar    
  34 O34           -7.9664     0.2073     9.7034 O.3     
  35 C35           -8.1276     1.5775    10.0758 C.3     
  36 H36            2.1466    -0.1112     0.1798 H       
  37 H37            2.1976    -2.5420     0.5306 H       
  38 H38            0.0970    -3.8085     0.7543 H       
  39 H39           -2.7875    -3.2682    -0.1717 H       
  40 H40           -2.7538    -3.0129     1.5969 H       
  41 H41           -5.2245    -0.5105    -0.1396 H       
  42 H42           -5.2582    -2.2718     0.1154 H       
  43 H43            1.8817     1.3342    -0.8065 H       
  44 H44            0.5252     3.0542    -1.9685 H       
  45 H45            2.0715     1.4071     1.6648 H       
  46 H46            3.7216     3.2530     1.7994 H       
  47 H47            3.8910     2.3548     0.2721 H       
  48 H48            2.3651     4.9730     0.6374 H       
  49 H49            3.9661     4.8018    -0.1216 H       
  50 H50            2.9880     3.3167    -1.8497 H       
  51 H51            2.1753     4.9002    -1.8339 H       
  52 H52           -5.3492     1.0195     1.7362 H       
  53 H53           -6.1247     1.3777     4.0433 H       
  54 H54           -6.2072    -2.8620     4.6565 H       
  55 H55           -5.4396    -3.2019     2.3440 H       
  56 H56           -6.6965     1.6293     5.7468 H       
  57 H57           -7.5661    -2.1744     8.6959 H       
  58 H58           -6.7967    -2.6121     6.3778 H       
  59 H59           -7.1728     2.0946     9.9808 H       
  60 H60           -8.8621     2.0477     9.4220 H       
  61 H61           -8.4710     1.6353    11.1088 H       
@<TRIPOS>BOND
   1    1    2 1
   2    1   13 1
   3    2    3 ar
   4    2    7 ar
   5    3    4 ar
   6    3   36 1
   7    4    5 ar
   8    4   37 1
   9    5    6 ar
  10    5   38 1
  11    6    8 1
  12    6    7 ar
  13    7   10 1
  14    8    9 1
  15    8   39 1
  16    8   40 1
  17    9   10 am
  18    9   11 1
  19   10   12 2
  20   11   20 1
  21   11   41 1
  22   11   42 1
  23   13   16 1
  24   13   14 1
  25   13   43 1
  26   14   15 1
  27   14   19 1
  28   14   44 1
  29   15   27 3
  30   16   17 1
  31   16   28 1
  32   16   45 1
  33   17   18 1
  34   17   46 1
  35   17   47 1
  36   18   19 1
  37   18   48 1
  38   18   49 1
  39   19   50 1
  40   19   51 1
  41   20   21 ar
  42   20   25 ar
  43   21   22 ar
  44   21   52 1
  45   22   23 ar
  46   22   53 1
  47   23   24 ar
  48   23   26 1
  49   24   25 ar
  50   24   54 1
  51   25   55 1
  52   26   29 ar
  53   26   33 ar
  54   29   30 ar
  55   29   56 1
  56   30   31 ar
  57   31   32 ar
  58   31   34 1
  59   32   33 ar
  60   32   57 1
  61   33   58 1
  62   34   35 1
  63   35   59 1
  64   35   60 1
  65   35   61 1

#	End of record

