#	Name: ASD08150269
#	Creating user name:	WinNT
#	Creation time:	15. 06. 2019 21:15

#	Modifying user name:	WinNT
#	Modification time:	15. 06. 2019 21:15

#	Program:	/corina/corina34_cracker 3.40 0067  02.08.2006

@<TRIPOS>MOLECULE
ASD08150269
  36   37    0    0    0
SMALL
NO_CHARGES


@<TRIPOS>ATOM
   1 C1            -0.0180     1.4730     0.0101 C.2     
   2 C2             0.0021    -0.0041     0.0020 C.ar    
   3 C3             0.0231    -0.7119     1.2057 C.ar    
   4 C4             0.0418    -2.0909     1.1908 C.ar    
   5 C5             0.0402    -2.7731    -0.0132 C.ar    
   6 C6             0.0194    -2.0782    -1.2093 C.ar    
   7 C7            -0.0057    -0.6988    -1.2089 C.ar    
   8 O8             1.0256     2.0947     0.0035 O.2     
   9 O9            -1.1936     2.1307     0.0193 O.3     
  10 N10           -0.0341     0.0430    -2.4895 N.pl3   
  11 O11           -0.0408    -0.5645    -3.5452 O.2     
  12 O12           -0.0507     1.2609    -2.4876 O.2     
  13 C13            0.0259     0.0294     2.5177 C.3     
  14 N14           -1.3409     0.4615     2.8390 N.3     
  15 C15           -1.4213     0.9762     4.2137 C.3     
  16 C16           -2.8450     1.4693     4.4858 C.3     
  17 O17           -3.7668     0.4010     4.2528 O.3     
  18 C18           -3.7158    -0.1239     2.9234 C.3     
  19 C19           -2.3010    -0.6331     2.6355 C.3     
  20 C20           -1.1373     3.5816     0.0269 C.3     
  21 H21            0.0581    -2.6395     2.1209 H       
  22 H22            0.0556    -3.8530    -0.0192 H       
  23 H23            0.0183    -2.6168    -2.1454 H       
  24 H24            0.3938    -0.6279     3.3056 H       
  25 H25            0.6742     0.9022     2.4406 H       
  26 H26           -1.1714     0.1804     4.9155 H       
  27 H27           -0.7207     1.8023     4.3346 H       
  28 H28           -2.9242     1.7990     5.5217 H       
  29 H29           -3.0756     2.3008     3.8198 H       
  30 H30           -4.4248    -0.9464     2.8293 H       
  31 H31           -3.9718     0.6613     2.2120 H       
  32 H32           -2.2424    -0.9817     1.6044 H       
  33 H33           -2.0651    -1.4546     3.3120 H       
  34 H34           -2.1501     3.9844     0.0339 H       
  35 H35           -0.6055     3.9199     0.9162 H       
  36 H36           -0.6140     3.9295    -0.8637 H       
@<TRIPOS>BOND
   1    1    2 1
   2    1    8 2
   3    1    9 1
   4    2    3 ar
   5    2    7 ar
   6    3    4 ar
   7    3   13 1
   8    4    5 ar
   9    4   21 1
  10    5    6 ar
  11    5   22 1
  12    6    7 ar
  13    6   23 1
  14    7   10 1
  15    9   20 1
  16   10   11 2
  17   10   12 2
  18   13   14 1
  19   13   24 1
  20   13   25 1
  21   14   15 1
  22   14   19 1
  23   15   16 1
  24   15   26 1
  25   15   27 1
  26   16   17 1
  27   16   28 1
  28   16   29 1
  29   17   18 1
  30   18   19 1
  31   18   30 1
  32   18   31 1
  33   19   32 1
  34   19   33 1
  35   20   34 1
  36   20   35 1
  37   20   36 1

#	End of record

