#	Name: ASD09740352
#	Creating user name:	WinNT
#	Creation time:	15. 06. 2019 21:23

#	Modifying user name:	WinNT
#	Modification time:	15. 06. 2019 21:23

#	Program:	/corina/corina34_cracker 3.40 0067  02.08.2006

@<TRIPOS>MOLECULE
ASD09740352
  65   67    0    0    0
SMALL
NO_CHARGES


@<TRIPOS>ATOM
   1 O1            -0.4425     1.4892    -2.1066 O.3     
   2 O2            -0.3692     4.2309    -2.3312 O.3     
   3 N3             5.6798    -0.2637    -1.2939 N.2     
   4 O4             4.5132     0.0310    -1.4452 O.3     
   5 C5             6.4256     0.8108    -1.3038 C.2     
   6 N6             5.6068     1.8682    -1.4818 N.2     
   7 C7             4.3906     1.3618    -1.5709 C.2     
   8 C8             3.1361     2.1150    -1.7709 C.ar    
   9 C9             7.9017     0.8582    -1.1478 C.ar    
  10 C10            8.6420    -0.3127    -0.9693 C.ar    
  11 C11           10.0127    -0.2237    -0.8287 C.ar    
  12 N12           10.6218     0.9454    -0.8609 N.ar    
  13 C13            9.9598     2.0741    -1.0275 C.ar    
  14 C14            8.5881     2.0746    -1.1816 C.ar    
  15 C15            1.9168     1.4370    -1.8457 C.ar    
  16 C16            0.7460     2.1461    -2.0329 C.ar    
  17 C17            0.7830     3.5349    -2.1467 C.ar    
  18 C18            1.9939     4.2080    -2.0723 C.ar    
  19 C19            3.1654     3.5066    -1.8798 C.ar    
  20 C20           -0.2588     5.6515    -2.4397 C.3     
  21 C21           -1.6491     6.2571    -2.6425 C.3     
  22 C22           -0.4060     0.0661    -1.9824 C.3     
  23 C23           -1.8266    -0.4919    -2.0898 C.3     
  24 C24           10.8233    -1.4793    -0.6354 C.3     
  25 N25           11.3353    -1.9365    -1.9342 N.3     
  26 C26           12.1322    -3.1614    -1.7843 C.3     
  27 C27           12.6470    -3.6057    -3.1549 C.3     
  28 N28           13.4439    -4.8306    -3.0051 N.3     
  29 C29           12.5137    -6.1187    -4.8686 C.3     
  30 C30           13.7563    -5.4189    -4.3144 C.3     
  31 C31           15.2665    -5.8976    -1.7652 C.3     
  32 C32           14.6699    -4.5706    -2.2387 C.3     
  33 H33            8.1495    -1.2734    -0.9412 H       
  34 H34           10.4986     3.0098    -1.0477 H       
  35 H35            8.0524     3.0024    -1.3179 H       
  36 H36            1.8896     0.3610    -1.7577 H       
  37 H37            2.0185     5.2841    -2.1609 H       
  38 H38            4.1067     4.0330    -1.8223 H       
  39 H39            0.1826     6.0523    -1.5272 H       
  40 H40            0.3746     5.9028    -3.2904 H       
  41 H41           -1.5648     7.3407    -2.7252 H       
  42 H42           -2.0904     5.8563    -3.5550 H       
  43 H43           -2.2825     6.0058    -1.7917 H       
  44 H44            0.2099    -0.3524    -2.7785 H       
  45 H45            0.0181    -0.2034    -1.0152 H       
  46 H46           -2.4424    -0.0734    -1.2937 H       
  47 H47           -2.2507    -0.2223    -3.0570 H       
  48 H48           -1.7987    -1.5774    -1.9951 H       
  49 H49           11.6595    -1.2727     0.0325 H       
  50 H50           10.1934    -2.2550    -0.1997 H       
  51 H51           10.5824    -2.0731    -2.5919 H       
  52 H52           12.9775    -2.9664    -1.1244 H       
  53 H53           11.5114    -3.9487    -1.3567 H       
  54 H54           11.8016    -3.8007    -3.8148 H       
  55 H55           13.2678    -2.8184    -3.5826 H       
  56 H56           12.7195    -6.4806    -5.8760 H       
  57 H57           12.2538    -6.9602    -4.2264 H       
  58 H58           11.6827    -5.4140    -4.8983 H       
  59 H59           14.0669    -4.6319    -5.0015 H       
  60 H60           14.5627    -6.1439    -4.2039 H       
  61 H61           14.5134    -6.4571    -1.2104 H       
  62 H62           15.5888    -6.4797    -2.6286 H       
  63 H63           16.1223    -5.7013    -1.1194 H       
  64 H64           15.3911    -4.0533    -2.8715 H       
  65 H65           14.4335    -3.9496    -1.3747 H       
@<TRIPOS>BOND
   1    1   22 1
   2    1   16 1
   3    2   20 1
   4    2   17 1
   5    3    4 1
   6    3    5 2
   7    4    7 1
   8    5    6 1
   9    5    9 1
  10    6    7 2
  11    7    8 1
  12    8   15 ar
  13    8   19 ar
  14    9   10 ar
  15    9   14 ar
  16   10   11 ar
  17   10   33 1
  18   11   12 ar
  19   11   24 1
  20   12   13 ar
  21   13   14 ar
  22   13   34 1
  23   14   35 1
  24   15   16 ar
  25   15   36 1
  26   16   17 ar
  27   17   18 ar
  28   18   19 ar
  29   18   37 1
  30   19   38 1
  31   20   21 1
  32   20   39 1
  33   20   40 1
  34   21   41 1
  35   21   42 1
  36   21   43 1
  37   22   23 1
  38   22   44 1
  39   22   45 1
  40   23   46 1
  41   23   47 1
  42   23   48 1
  43   24   25 1
  44   24   49 1
  45   24   50 1
  46   25   26 1
  47   25   51 1
  48   26   27 1
  49   26   52 1
  50   26   53 1
  51   27   28 1
  52   27   54 1
  53   27   55 1
  54   28   30 1
  55   28   32 1
  56   29   30 1
  57   29   56 1
  58   29   57 1
  59   29   58 1
  60   30   59 1
  61   30   60 1
  62   31   32 1
  63   31   61 1
  64   31   62 1
  65   31   63 1
  66   32   64 1
  67   32   65 1

#	End of record

