#	Name: ASD05213004
#	Creating user name:	WinNT
#	Creation time:	15. 06. 2019 20:57

#	Modifying user name:	WinNT
#	Modification time:	15. 06. 2019 20:57

#	Program:	/corina/corina34_cracker 3.40 0067  02.08.2006

@<TRIPOS>MOLECULE
ASD05213004
  27   28    0    0    0
SMALL
NO_CHARGES


@<TRIPOS>ATOM
   1 C1            -0.0184     1.5028     0.0103 C.2     
   2 C2             0.0021    -0.0041     0.0020 C.3     
   3 C3             0.0225    -0.5140     1.4200 C.2     
   4 N4             0.0428    -1.8402     1.6590 N.am    
   5 C5             0.0615    -2.3094     2.9637 C.2     
   6 S6             0.0606    -1.3182     4.3502 S.3     
   7 C7             0.0893    -2.6989     5.4325 C.2     
   8 C8             0.0987    -3.8337     4.7479 C.2     
   9 C9             0.0774    -3.6342     3.3155 C.2     
  10 C10            0.0821    -4.7317     2.3432 C.2     
  11 O11            0.0628    -4.4886     1.1508 O.2     
  12 N12            0.1077    -6.0099     2.7700 N.am    
  13 O13            0.0206     0.2691     2.3461 O.2     
  14 C14            1.0610     2.2865     0.0042 C.2     
  15 C15            0.7955     3.6450     0.0136 C.2     
  16 C16           -0.4995     3.9645     0.0272 C.2     
  17 S17           -1.4691     2.4971     0.0218 S.3     
  18 H18           -0.8878    -0.3767    -0.5053 H       
  19 H19            0.8920    -0.3525    -0.5222 H       
  20 H20            0.0443    -2.4665     0.9183 H       
  21 H21            0.0988    -2.6330     6.5105 H       
  22 H22            0.1166    -4.8086     5.2124 H       
  23 H23            0.1231    -6.2037     3.7203 H       
  24 H24            0.1108    -6.7360     2.1268 H       
  25 H25            2.0659     1.8911    -0.0068 H       
  26 H26            1.5776     4.3898     0.0104 H       
  27 H27           -0.8925     4.9704     0.0365 H       
@<TRIPOS>BOND
   1    1    2 1
   2    1   14 2
   3    1   17 1
   4    2    3 1
   5    2   18 1
   6    2   19 1
   7    3    4 am
   8    3   13 2
   9    4    5 1
  10    4   20 1
  11    5    6 1
  12    5    9 2
  13    6    7 1
  14    7    8 2
  15    7   21 1
  16    8    9 1
  17    8   22 1
  18    9   10 1
  19   10   11 2
  20   10   12 am
  21   12   23 1
  22   12   24 1
  23   14   15 1
  24   14   25 1
  25   15   16 2
  26   15   26 1
  27   16   17 1
  28   16   27 1

#	End of record

