#	Name: ASD01880280
#	Creating user name:	WinNT
#	Creation time:	15. 06. 2019 19:40

#	Modifying user name:	WinNT
#	Modification time:	15. 06. 2019 19:40

#	Program:	/corina/corina34_cracker 3.40 0067  02.08.2006

@<TRIPOS>MOLECULE
ASD01880280
  31   33    0    0    0
SMALL
NO_CHARGES


@<TRIPOS>ATOM
   1 C1            -0.0170     1.4033     0.0098 C.ar    
   2 C2             0.0021    -0.0041     0.0020 C.ar    
   3 N3            -1.1869    -0.7019     0.0087 N.am    
   4 C4            -2.3669    -0.0575     0.0220 C.2     
   5 C5            -2.4410     1.3519     0.0303 C.2     
   6 C6            -1.3071     2.0955     0.0197 C.2     
   7 O7            -3.3984    -0.7068     0.0267 O.2     
   8 C8            -1.1643    -2.1667     0.0006 C.3     
   9 C9            -1.1441    -2.6766     1.4185 C.ar    
  10 C10           -2.3320    -2.9289     2.0790 C.ar    
  11 C11           -2.3141    -3.3966     3.3795 C.ar    
  12 C12           -1.1071    -3.6123     4.0203 C.ar    
  13 C13            0.0815    -3.3596     3.3587 C.ar    
  14 C14            0.0624    -2.8973     2.0563 C.ar    
  15 Cl15          -1.0838    -4.1991     5.6539 Cl      
  16 C16            1.1866     2.1162     0.0021 C.ar    
  17 C17            2.3737     1.4406    -0.0128 C.ar    
  18 C18            2.3965     0.0524    -0.0210 C.ar    
  19 C19            1.2232    -0.6704    -0.0127 C.ar    
  20 H20           -3.4044     1.8399     0.0406 H       
  21 H21           -1.3546     3.1744     0.0259 H       
  22 H22           -2.0530    -2.5410    -0.5075 H       
  23 H23           -0.2733    -2.5134    -0.5230 H       
  24 H24           -3.2742    -2.7602     1.5788 H       
  25 H25           -3.2423    -3.5934     3.8955 H       
  26 H26            1.0241    -3.5277     3.8584 H       
  27 H27            0.9901    -2.7000     1.5398 H       
  28 H28            1.1772     3.1961     0.0076 H       
  29 H29            3.3028     1.9911    -0.0188 H       
  30 H30            3.3436    -0.4664    -0.0335 H       
  31 H31            1.2516    -1.7500    -0.0184 H       
@<TRIPOS>BOND
   1    1    2 ar
   2    1   16 ar
   3    1    6 1
   4    2    3 1
   5    2   19 ar
   6    3    4 am
   7    3    8 1
   8    4    5 1
   9    4    7 2
  10    5    6 2
  11    5   20 1
  12    6   21 1
  13    8    9 1
  14    8   22 1
  15    8   23 1
  16    9   10 ar
  17    9   14 ar
  18   10   11 ar
  19   10   24 1
  20   11   12 ar
  21   11   25 1
  22   12   13 ar
  23   12   15 1
  24   13   14 ar
  25   13   26 1
  26   14   27 1
  27   16   17 ar
  28   16   28 1
  29   17   18 ar
  30   17   29 1
  31   18   19 ar
  32   18   30 1
  33   19   31 1

#	End of record

