#	Name: ASD01940633
#	Creating user name:	WinNT
#	Creation time:	15. 06. 2019 20:12

#	Modifying user name:	WinNT
#	Modification time:	15. 06. 2019 20:12

#	Program:	/corina/corina34_cracker 3.40 0067  02.08.2006

@<TRIPOS>MOLECULE
ASD01940633
  52   54    0    0    0
SMALL
NO_CHARGES


@<TRIPOS>ATOM
   1 C1            -0.1219     1.1584     0.4637 C.ar    
   2 C2            -0.1441    -0.2417     0.5583 C.ar    
   3 C3             1.0436    -0.9415     0.6854 C.ar    
   4 C4             2.2526    -0.2651     0.7195 C.ar    
   5 C5             2.2872     1.1160     0.6275 C.ar    
   6 C6             1.1090     1.8362     0.4992 C.ar    
   7 N7             1.1452     3.2219     0.4061 N.pl3   
   8 C8             2.1956     3.9352     0.9934 C.ar    
   9 C9             2.9684     3.3456     1.9842 C.ar    
  10 C10            4.0053     4.0525     2.5627 C.ar    
  11 C11            4.2744     5.3466     2.1560 C.ar    
  12 C12            3.5067     5.9387     1.1686 C.ar    
  13 C13            2.4716     5.2353     0.5816 C.ar    
  14 F14            1.7255     5.8112    -0.3863 F       
  15 I15            5.8474     6.4133     3.0374 I       
  16 F16            3.4057    -0.9580     0.8438 F       
  17 C17           -1.3772     1.9107     0.3224 C.2     
  18 O18           -1.9714     2.2939     1.3124 O.2     
  19 N19           -1.8696     2.1757    -0.9039 N.am    
  20 O20           -1.3256    -0.9071     0.5257 O.3     
  21 C21           -1.3084    -2.2487     0.7409 C.ar    
  22 C22           -1.1719    -2.7441     2.0296 C.ar    
  23 C23           -1.1546    -4.1086     2.2457 C.ar    
  24 C24           -1.2726    -4.9801     1.1790 C.ar    
  25 C25           -1.4083    -4.4889    -0.1066 C.ar    
  26 C26           -1.4329    -3.1257    -0.3274 C.ar    
  27 C27           -1.0064    -4.6474     3.6452 C.3     
  28 N28           -1.8858    -5.8062     3.8180 N.am    
  29 S29           -2.6151    -6.0817     5.2790 S.o2    
  30 N30           -3.6604    -4.8261     5.5495 N.am    
  31 O31           -3.4171    -7.2431     5.1145 O.2     
  32 O32           -1.5956    -5.9741     6.2630 O.2     
  33 C33            0.4456    -5.0698     3.8780 C.3     
  34 H34            1.0279    -2.0189     0.7586 H       
  35 H35            3.2344     1.6340     0.6558 H       
  36 H36            0.4421     3.6947    -0.0662 H       
  37 H37            2.7593     2.3352     2.3031 H       
  38 H38            4.6063     3.5938     3.3338 H       
  39 H39            3.7191     6.9496     0.8534 H       
  40 H40           -1.3958     1.8701    -1.6932 H       
  41 H41           -2.6978     2.6720    -0.9971 H       
  42 H42           -1.0789    -2.0637     2.8632 H       
  43 H43           -1.2585    -6.0464     1.3500 H       
  44 H44           -1.5001    -5.1719    -0.9382 H       
  45 H45           -1.5437    -2.7426    -1.3311 H       
  46 H46           -1.2793    -3.8739     4.3631 H       
  47 H47           -2.0408    -6.4122     3.0766 H       
  48 H48           -4.4658    -4.9692     6.0708 H       
  49 H49           -3.4674    -3.9475     5.1866 H       
  50 H50            0.5528    -5.4595     4.8903 H       
  51 H51            0.7186    -5.8432     3.1601 H       
  52 H52            1.0999    -4.2075     3.7494 H       
@<TRIPOS>BOND
   1    1    2 ar
   2    1    6 ar
   3    1   17 1
   4    2    3 ar
   5    2   20 1
   6    3    4 ar
   7    3   34 1
   8    4    5 ar
   9    4   16 1
  10    5    6 ar
  11    5   35 1
  12    6    7 1
  13    7    8 1
  14    7   36 1
  15    8    9 ar
  16    8   13 ar
  17    9   10 ar
  18    9   37 1
  19   10   11 ar
  20   10   38 1
  21   11   12 ar
  22   11   15 1
  23   12   13 ar
  24   12   39 1
  25   13   14 1
  26   17   18 2
  27   17   19 am
  28   19   40 1
  29   19   41 1
  30   20   21 1
  31   21   22 ar
  32   21   26 ar
  33   22   23 ar
  34   22   42 1
  35   23   24 ar
  36   23   27 1
  37   24   25 ar
  38   24   43 1
  39   25   26 ar
  40   25   44 1
  41   26   45 1
  42   27   28 1
  43   27   33 1
  44   27   46 1
  45   28   29 am
  46   28   47 1
  47   29   30 am
  48   29   31 2
  49   29   32 2
  50   30   48 1
  51   30   49 1
  52   33   50 1
  53   33   51 1
  54   33   52 1

#	End of record

