#	Name: ASD04530016
#	Creating user name:	WinNT
#	Creation time:	15. 06. 2019 20:49

#	Modifying user name:	WinNT
#	Modification time:	15. 06. 2019 20:49

#	Program:	/corina/corina34_cracker 3.40 0067  02.08.2006

@<TRIPOS>MOLECULE
ASD04530016
  24   25    0    0    0
SMALL
NO_CHARGES


@<TRIPOS>ATOM
   1 C1            -0.0167     1.3790     0.0096 C.ar    
   2 C2             0.0021    -0.0041     0.0020 C.ar    
   3 C3             1.2053    -0.6855    -0.0132 C.ar    
   4 C4             2.3995     0.0154    -0.0204 C.ar    
   5 C5             2.3840     1.4139    -0.0127 C.ar    
   6 C6             1.1667     2.0904     0.0021 C.ar    
   7 C7             3.6580     2.1730    -0.0199 C.2     
   8 C8             3.6946     3.5163    -0.0130 C.2     
   9 S9             5.3818     4.0240    -0.0245 S.3     
  10 C10            5.8920     2.3388    -0.0378 C.2     
  11 N11            4.8465     1.5710    -0.0279 N.2     
  12 N12            7.2063     1.9008    -0.0517 N.pl3   
  13 O13            3.5824    -0.6532    -0.0344 O.3     
  14 C14            3.5206    -2.0809    -0.0411 C.3     
  15 H15           -0.9603     1.9043     0.0169 H       
  16 H16           -0.9272    -0.5543     0.0083 H       
  17 H17            1.2135    -1.7654    -0.0191 H       
  18 H18            1.1483     3.1702     0.0078 H       
  19 H19            2.8368     4.1724    -0.0028 H       
  20 H20            7.9321     2.5444    -0.0543 H       
  21 H21            7.4008     0.9505    -0.0587 H       
  22 H22            2.9996    -2.4262     0.8519 H       
  23 H23            2.9836    -2.4172    -0.9280 H       
  24 H24            4.5316    -2.4883    -0.0522 H       
@<TRIPOS>BOND
   1    1    2 ar
   2    1    6 ar
   3    1   15 1
   4    2    3 ar
   5    2   16 1
   6    3    4 ar
   7    3   17 1
   8    4    5 ar
   9    4   13 1
  10    5    6 ar
  11    5    7 1
  12    6   18 1
  13    7    8 2
  14    7   11 1
  15    8    9 1
  16    8   19 1
  17    9   10 1
  18   10   11 2
  19   10   12 1
  20   12   20 1
  21   12   21 1
  22   13   14 1
  23   14   22 1
  24   14   23 1
  25   14   24 1

#	End of record

