#	Name: ASD08070265
#	Creating user name:	WinNT
#	Creation time:	15. 06. 2019 21:14

#	Modifying user name:	WinNT
#	Modification time:	15. 06. 2019 21:14

#	Program:	/corina/corina34_cracker 3.40 0067  02.08.2006

@<TRIPOS>MOLECULE
ASD08070265
  37   38    0    0    0
SMALL
NO_CHARGES


@<TRIPOS>ATOM
   1 N1             1.3340     1.6628    -0.2126 N.2     
   2 N2             2.0789     0.6292    -0.0490 N.pl3   
   3 C3             1.2973    -0.4689     0.1728 C.2     
   4 C4            -0.0132    -0.0255     0.1330 C.2     
   5 C5             0.0679     1.3463    -0.1168 C.2     
   6 C6             1.7567    -1.8473     0.4068 C.2     
   7 O7             2.9427    -2.1109     0.3503 O.2     
   8 N8             0.8631    -2.8175     0.6838 N.am    
   9 C9             1.3063    -4.2086     0.8050 C.3     
  10 C10            0.1224    -5.0877     1.1158 C.ar    
  11 C11           -0.7326    -5.4850     0.0972 C.ar    
  12 C12           -1.8214    -6.2936     0.3837 C.ar    
  13 C13           -2.0535    -6.7036     1.6877 C.ar    
  14 C14           -1.1958    -6.3038     2.7025 C.ar    
  15 C15           -0.1078    -5.5022     2.4134 C.ar    
  16 O16           -3.1203    -7.4960     1.9718 O.3     
  17 C17           -3.2980    -7.8800     3.3367 C.3     
  18 O18           -0.5028    -5.0812    -1.1799 O.3     
  19 C19           -1.4235    -5.5281    -2.1772 C.3     
  20 C20            3.5432     0.6281    -0.0941 C.3     
  21 H21           -0.9082    -0.6150     0.2663 H       
  22 H22           -0.7664     2.0254    -0.2134 H       
  23 H23           -0.0734    -2.5948     0.8028 H       
  24 H24            1.7601    -4.5284    -0.1330 H       
  25 H25            2.0386    -4.2879     1.6085 H       
  26 H26           -2.4880    -6.6035    -0.4075 H       
  27 H27           -1.3761    -6.6228     3.7184 H       
  28 H28            0.5612    -5.1956     3.2039 H       
  29 H29           -4.1835    -8.5095     3.4247 H       
  30 H30           -2.4228    -8.4348     3.6750 H       
  31 H31           -3.4233    -6.9888     3.9516 H       
  32 H32           -1.4231    -6.6176    -2.2100 H       
  33 H33           -2.4244    -5.1722    -1.9332 H       
  34 H34           -1.1251    -5.1352    -3.1492 H       
  35 H35            3.9379     0.7218     0.9176 H       
  36 H36            3.8924    -0.3054    -0.5354 H       
  37 H37            3.8887     1.4672    -0.6980 H       
@<TRIPOS>BOND
   1    1    2 1
   2    1    5 2
   3    2    3 1
   4    2   20 1
   5    3    4 2
   6    3    6 1
   7    4    5 1
   8    4   21 1
   9    5   22 1
  10    6    7 2
  11    6    8 am
  12    8    9 1
  13    8   23 1
  14    9   10 1
  15    9   24 1
  16    9   25 1
  17   10   11 ar
  18   10   15 ar
  19   11   12 ar
  20   11   18 1
  21   12   13 ar
  22   12   26 1
  23   13   14 ar
  24   13   16 1
  25   14   15 ar
  26   14   27 1
  27   15   28 1
  28   16   17 1
  29   17   29 1
  30   17   30 1
  31   17   31 1
  32   18   19 1
  33   19   32 1
  34   19   33 1
  35   19   34 1
  36   20   35 1
  37   20   36 1
  38   20   37 1

#	End of record

