#	Name: ASD01914947
#	Creating user name:	WinNT
#	Creation time:	15. 06. 2019 20:04

#	Modifying user name:	WinNT
#	Modification time:	15. 06. 2019 20:04

#	Program:	/corina/corina34_cracker 3.40 0067  02.08.2006

@<TRIPOS>MOLECULE
ASD01914947
  58   62    0    0    0
SMALL
NO_CHARGES


@<TRIPOS>ATOM
   1 C1            -0.0033     1.3310    -0.0215 C.2     
   2 N2             0.0139     0.0589     0.3176 N.2     
   3 C3             1.3083     1.7201    -0.3417 C.2     
   4 C4             2.1161     0.6325    -0.1823 C.2     
   5 N5             1.3319    -0.4058     0.2257 N.pl3   
   6 C6            -1.2037     2.2031    -0.0642 C.ar    
   7 C7            -1.1024     3.5083    -0.5417 C.ar    
   8 C8            -2.2207     4.3153    -0.5802 C.ar    
   9 C9            -3.4432     3.8299    -0.1445 C.ar    
  10 C10           -3.5482     2.5332     0.3313 C.ar    
  11 C11           -2.4358     1.7172     0.3674 C.ar    
  12 C12            3.5776     0.5876    -0.4106 C.ar    
  13 C13            1.7878    -1.7672     0.5174 C.3     
  14 C14            2.0656    -1.8987     1.9927 C.2     
  15 N15            2.4990    -3.0719     2.4949 N.am    
  16 O16            1.8991    -0.9488     2.7282 O.2     
  17 C17            2.7795    -3.2331     3.9320 C.3     
  18 C18            1.8257    -4.2964     4.4827 C.3     
  19 C19            1.7797    -5.4828     3.5662 C.2     
  20 C20            2.1591    -5.4639     2.3106 C.2     
  21 C21            2.7050    -4.2435     1.6315 C.3     
  22 C22            4.1839     1.5202    -1.2524 C.ar    
  23 C23            5.5470     1.4730    -1.4613 C.ar    
  24 C24            6.3121     0.5036    -0.8378 C.ar    
  25 C25            5.7167    -0.4241    -0.0018 C.ar    
  26 C26            4.3554    -0.3839     0.2196 C.ar    
  27 C27            1.2730    -6.7576     4.1139 C.ar    
  28 N28            1.2201    -7.8257     3.3275 N.ar    
  29 N29            0.8861    -6.8099     5.3828 N.ar    
  30 C30            0.4281    -7.9351     5.9031 C.ar    
  31 C31            0.3544    -9.0686     5.1069 C.ar    
  32 C32            0.7719    -8.9810     3.7870 C.ar    
  33 C33           -4.8802     2.0109     0.8043 C.3     
  34 F34           -4.5357     4.6236    -0.1834 F       
  35 H35            1.6210     2.7044    -0.6577 H       
  36 H36           -0.1498     3.8876    -0.8808 H       
  37 H37           -2.1431     5.3270    -0.9501 H       
  38 H38           -2.5185     0.7062     0.7382 H       
  39 H39            1.0147    -2.4791     0.2284 H       
  40 H40            2.6994    -1.9731    -0.0437 H       
  41 H41            3.8113    -3.5554     4.0723 H       
  42 H42            2.6147    -2.2873     4.4481 H       
  43 H43            2.1697    -4.6143     5.4670 H       
  44 H44            0.8259    -3.8717     4.5732 H       
  45 H45            2.0711    -6.3738     1.7355 H       
  46 H46            2.1911    -4.0945     0.6818 H       
  47 H47            3.7724    -4.3728     1.4529 H       
  48 H48            3.5876     2.2772    -1.7399 H       
  49 H49            6.0176     2.1942    -2.1131 H       
  50 H50            7.3786     0.4706    -1.0047 H       
  51 H51            6.3193    -1.1785     0.4820 H       
  52 H52            3.8917    -1.1086     0.8724 H       
  53 H53            0.1151    -7.9717     6.9361 H       
  54 H54           -0.0161   -10.0007     5.5074 H       
  55 H55            0.7271    -9.8455     3.1412 H       
  56 H56           -5.4087     1.5530    -0.0319 H       
  57 H57           -4.7223     1.2671     1.5853 H       
  58 H58           -5.4732     2.8346     1.2016 H       
@<TRIPOS>BOND
   1    1    2 2
   2    1    3 1
   3    1    6 1
   4    2    5 1
   5    3    4 2
   6    3   35 1
   7    4    5 1
   8    4   12 1
   9    5   13 1
  10    6    7 ar
  11    6   11 ar
  12    7    8 ar
  13    7   36 1
  14    8    9 ar
  15    8   37 1
  16    9   10 ar
  17    9   34 1
  18   10   11 ar
  19   10   33 1
  20   11   38 1
  21   12   22 ar
  22   12   26 ar
  23   13   14 1
  24   13   39 1
  25   13   40 1
  26   14   15 am
  27   14   16 2
  28   15   17 1
  29   15   21 1
  30   17   18 1
  31   17   41 1
  32   17   42 1
  33   18   19 1
  34   18   43 1
  35   18   44 1
  36   19   20 2
  37   19   27 1
  38   20   21 1
  39   20   45 1
  40   21   46 1
  41   21   47 1
  42   22   23 ar
  43   22   48 1
  44   23   24 ar
  45   23   49 1
  46   24   25 ar
  47   24   50 1
  48   25   26 ar
  49   25   51 1
  50   26   52 1
  51   27   28 ar
  52   27   29 ar
  53   28   32 ar
  54   29   30 ar
  55   30   31 ar
  56   30   53 1
  57   31   32 ar
  58   31   54 1
  59   32   55 1
  60   33   56 1
  61   33   57 1
  62   33   58 1

#	End of record

