#	Name: ASD01915963
#	Creating user name:	WinNT
#	Creation time:	15. 06. 2019 20:06

#	Modifying user name:	WinNT
#	Modification time:	15. 06. 2019 20:06

#	Program:	/corina/corina34_cracker 3.40 0067  02.08.2006

@<TRIPOS>MOLECULE
ASD01915963
  39   41    0    0    0
SMALL
NO_CHARGES


@<TRIPOS>ATOM
   1 C1            -0.0165     1.3674     0.0096 C.2     
   2 C2             0.0021    -0.0041     0.0020 C.2     
   3 C3            -1.3057    -0.7789    -0.0020 C.3     
   4 C4            -2.3695     0.0448     0.7209 C.3     
   5 N5            -2.4037     1.4320     0.2718 N.am    
   6 C6            -1.2696     2.1314     0.0352 C.2     
   7 O7            -1.2877     3.3344    -0.1470 O.2     
   8 S8             1.6349     1.9479    -0.0031 S.3     
   9 C9             2.2074     0.3354    -0.0093 C.2     
  10 N10            1.2152    -0.4964    -0.0049 N.2     
  11 O11            4.1122    -0.1833    -1.3699 O.3     
  12 C12            5.4109    -0.5370    -1.5571 C.ar    
  13 C13            5.9154    -0.6743    -2.8422 C.ar    
  14 C14            6.2360    -0.7559    -0.4635 C.ar    
  15 C15            7.5559    -1.1150    -0.6564 C.ar    
  16 C16            8.0550    -1.2558    -1.9381 C.ar    
  17 C17            7.2360    -1.0335    -3.0298 C.ar    
  18 C18            3.6613    -0.0606    -0.0195 C.3     
  19 C19           -3.6996     2.0851     0.0711 C.3     
  20 C20           -3.8044     3.3036     0.9904 C.3     
  21 C21           -3.8244     2.5335    -1.3864 C.3     
  22 H22           -1.6199    -0.9597    -1.0300 H       
  23 H23           -1.1683    -1.7300     0.5124 H       
  24 H24           -3.3455    -0.4071     0.5442 H       
  25 H25           -2.1630     0.0258     1.7910 H       
  26 H26            5.2761    -0.5008    -3.6951 H       
  27 H27            5.8468    -0.6454     0.5379 H       
  28 H28            8.1986    -1.2855     0.1946 H       
  29 H29            9.0873    -1.5362    -2.0869 H       
  30 H30            7.6282    -1.1445    -4.0299 H       
  31 H31            4.2492     0.7016     0.4920 H       
  32 H32            3.7813    -1.0158     0.4918 H       
  33 H33           -4.5003     1.3834     0.3051 H       
  34 H34           -3.0038     4.0053     0.7563 H       
  35 H35           -4.7686     3.7896     0.8410 H       
  36 H36           -3.7155     2.9841     2.0287 H       
  37 H37           -3.7498     1.6654    -2.0413 H       
  38 H38           -4.7886     3.0195    -1.5357 H       
  39 H39           -3.0238     3.2352    -1.6205 H       
@<TRIPOS>BOND
   1    1    2 2
   2    1    8 1
   3    1    6 1
   4    2    3 1
   5    2   10 1
   6    3    4 1
   7    3   22 1
   8    3   23 1
   9    4    5 1
  10    4   24 1
  11    4   25 1
  12    5    6 am
  13    5   19 1
  14    6    7 2
  15    8    9 1
  16    9   10 2
  17    9   18 1
  18   11   12 1
  19   11   18 1
  20   12   13 ar
  21   12   14 ar
  22   13   17 ar
  23   13   26 1
  24   14   15 ar
  25   14   27 1
  26   15   16 ar
  27   15   28 1
  28   16   17 ar
  29   16   29 1
  30   17   30 1
  31   18   31 1
  32   18   32 1
  33   19   20 1
  34   19   21 1
  35   19   33 1
  36   20   34 1
  37   20   35 1
  38   20   36 1
  39   21   37 1
  40   21   38 1
  41   21   39 1

#	End of record

