#	Name: ASD01881147
#	Creating user name:	WinNT
#	Creation time:	15. 06. 2019 19:42

#	Modifying user name:	WinNT
#	Modification time:	15. 06. 2019 19:42

#	Program:	/corina/corina34_cracker 3.40 0067  02.08.2006

@<TRIPOS>MOLECULE
ASD01881147
  53   56    0    0    0
SMALL
NO_CHARGES


@<TRIPOS>ATOM
   1 N1            -0.0139     1.3122    -0.0054 N.ar    
   2 C2             0.0051    -0.0049    -0.0267 C.ar    
   3 N3             1.1346    -0.6834    -0.0555 N.ar    
   4 C4             2.3049    -0.0613    -0.0646 C.ar    
   5 C5             2.3343     1.3195    -0.0434 C.ar    
   6 C6             1.1198     2.0077    -0.0127 C.ar    
   7 C7             3.6442     2.0645    -0.0523 C.3     
   8 O8             4.0371     2.3211    -1.4021 O.3     
   9 C9             5.2038     2.9890    -1.5878 C.ar    
  10 C10            5.6452     3.2716    -2.8772 C.ar    
  11 C11            6.8249     3.9474    -3.0648 C.ar    
  12 C12            7.5894     4.3557    -1.9665 C.ar    
  13 C13            7.1418     4.0694    -0.6724 C.ar    
  14 C14            5.9530     3.3947    -0.4907 C.ar    
  15 C15            7.5704     4.4022    -4.2948 C.3     
  16 N16            8.7800     5.0791    -3.8134 N.am    
  17 C17            8.7865     5.0497    -2.4697 C.2     
  18 O18            9.6573     5.5287    -1.7691 O.2     
  19 C19           -1.3010    -0.7565    -0.0175 C.3     
  20 C20            3.5881    -0.8509    -0.0970 C.3     
  21 Cl21           8.0778     4.5679     0.7019 Cl      
  22 N22            1.0960     3.3938     0.0089 N.pl3   
  23 C23           -0.1222     4.0734    -0.0813 C.ar    
  24 C24           -0.3051     5.2680     0.6034 C.ar    
  25 C25           -1.5099     5.9369     0.5121 C.ar    
  26 C26           -2.5337     5.4184    -0.2595 C.ar    
  27 C27           -2.3549     4.2293    -0.9424 C.ar    
  28 C28           -1.1504     3.5585    -0.8604 C.ar    
  29 C29            9.4558     7.1522    -4.9212 C.3     
  30 C30            9.8107     5.6873    -4.6584 C.3     
  31 H31            3.5283     3.0096     0.4782 H       
  32 H32            4.4079     1.4626     0.4402 H       
  33 H33            5.0600     2.9590    -3.7294 H       
  34 H34            5.6071     3.1739     0.5083 H       
  35 H35            7.8408     3.5428    -4.9082 H       
  36 H36            6.9567     5.0955    -4.8700 H       
  37 H37           -1.6326    -0.9214    -1.0427 H       
  38 H38           -1.1639    -1.7172     0.4789 H       
  39 H39           -2.0513    -0.1747     0.5180 H       
  40 H40            3.8811    -1.0256    -1.1323 H       
  41 H41            4.3721    -0.2913     0.4130 H       
  42 H42            3.4391    -1.8071     0.4047 H       
  43 H43            1.9247     3.8919     0.0867 H       
  44 H44            0.4938     5.6732     1.2068 H       
  45 H45           -1.6528     6.8658     1.0443 H       
  46 H46           -3.4751     5.9431    -0.3286 H       
  47 H47           -3.1565     3.8269    -1.5439 H       
  48 H48           -1.0114     2.6299    -1.3941 H       
  49 H49            9.3999     7.6881    -3.9737 H       
  50 H50           10.2227     7.6047    -5.5499 H       
  51 H51            8.4920     7.2074    -5.4272 H       
  52 H52           10.7745     5.6321    -4.1524 H       
  53 H53            9.8666     5.1514    -5.6059 H       
@<TRIPOS>BOND
   1    1    2 ar
   2    1    6 ar
   3    2    3 ar
   4    2   19 1
   5    3    4 ar
   6    4    5 ar
   7    4   20 1
   8    5    6 ar
   9    5    7 1
  10    6   22 1
  11    7    8 1
  12    7   31 1
  13    7   32 1
  14    8    9 1
  15    9   10 ar
  16    9   14 ar
  17   10   11 ar
  18   10   33 1
  19   11   12 ar
  20   11   15 1
  21   12   13 ar
  22   12   17 1
  23   13   14 ar
  24   13   21 1
  25   14   34 1
  26   15   16 1
  27   15   35 1
  28   15   36 1
  29   16   17 am
  30   16   30 1
  31   17   18 2
  32   19   37 1
  33   19   38 1
  34   19   39 1
  35   20   40 1
  36   20   41 1
  37   20   42 1
  38   22   23 1
  39   22   43 1
  40   23   24 ar
  41   23   28 ar
  42   24   25 ar
  43   24   44 1
  44   25   26 ar
  45   25   45 1
  46   26   27 ar
  47   26   46 1
  48   27   28 ar
  49   27   47 1
  50   28   48 1
  51   29   30 1
  52   29   49 1
  53   29   50 1
  54   29   51 1
  55   30   52 1
  56   30   53 1

#	End of record

