#	Name: ASD01100002
#	Creating user name:	WinNT
#	Creation time:	15. 06. 2019 18:58

#	Modifying user name:	WinNT
#	Modification time:	15. 06. 2019 18:58

#	Program:	/corina/corina34_cracker 3.40 0067  02.08.2006

@<TRIPOS>MOLECULE
ASD01100002
  11   10    0    0    0
SMALL
NO_CHARGES


@<TRIPOS>ATOM
   1 C1            -0.0184     1.5028     0.0103 C.2     
   2 C2             0.0021    -0.0041     0.0020 C.3     
   3 C3             1.4513    -0.4944    -0.0145 C.3     
   4 O4             1.0197     2.1211     0.0037 O.2     
   5 O5            -1.1898     2.1580     0.0194 O.3     
   6 H6            -0.4983    -0.3791     0.8948 H       
   7 H7            -0.5153    -0.3696    -0.8850 H       
   8 H8             1.9516    -0.1193    -0.9073 H       
   9 H9             1.9686    -0.1289     0.8726 H       
  10 H10            1.4661    -1.5843    -0.0204 H       
  11 H11           -1.1523     3.1243     0.0245 H       
@<TRIPOS>BOND
   1    1    2 1
   2    1    4 2
   3    1    5 1
   4    2    3 1
   5    2    6 1
   6    2    7 1
   7    3    8 1
   8    3    9 1
   9    3   10 1
  10    5   11 1

#	End of record

