#	Name: ASD05313005
#	Creating user name:	WinNT
#	Creation time:	15. 06. 2019 20:58

#	Modifying user name:	WinNT
#	Modification time:	15. 06. 2019 20:58

#	Program:	/corina/corina34_cracker 3.40 0067  02.08.2006

@<TRIPOS>MOLECULE
ASD05313005
  32   34    0    0    0
SMALL
NO_CHARGES


@<TRIPOS>ATOM
   1 C1            -0.0728     0.8174     1.0213 C.2     
   2 C2             0.1135    -0.6187     0.5947 C.3     
   3 N3             0.9355     1.7353     1.0477 N.pl3   
   4 N4             1.4573    -0.7172    -0.0062 N.am    
   5 C5             2.5716    -0.0367     0.6707 C.3     
   6 C6             2.3215     1.4761     0.6621 C.3     
   7 N7            -0.8894     2.6436     1.7012 N.2     
   8 N8            -1.1522     1.4127     1.4230 N.2     
   9 C9             0.3792     2.8876     1.4885 C.2     
  10 C10            1.6582    -1.4118    -1.1436 C.2     
  11 O11            2.7501    -1.4006    -1.6778 O.2     
  12 C12            0.5512    -2.1869    -1.7413 C.ar    
  13 C13            0.3198    -2.1328    -3.1183 C.ar    
  14 C14           -0.7169    -2.8601    -3.6695 C.ar    
  15 C15           -1.5246    -3.6397    -2.8615 C.ar    
  16 C16           -1.3006    -3.6969    -1.4972 C.ar    
  17 C17           -0.2647    -2.9810    -0.9338 C.ar    
  18 C18           -0.9689    -2.8038    -5.1542 C.3     
  19 F19           -2.0623    -3.6162    -5.4728 F       
  20 F20           -1.2426    -1.4846    -5.5310 F       
  21 F21            0.1644    -3.2582    -5.8371 F       
  22 Cl22           1.3322    -1.1537    -4.1333 Cl      
  23 Br23           1.2670     4.5364     1.7518 Br      
  24 H24            0.0442    -1.2763     1.4612 H       
  25 H25           -0.6439    -0.8896    -0.1409 H       
  26 H26            2.6411    -0.3882     1.7001 H       
  27 H27            3.5027    -0.2546     0.1475 H       
  28 H28            2.5008     1.8692    -0.3386 H       
  29 H29            2.9934     1.9605     1.3706 H       
  30 H30           -2.3341    -4.2063    -3.2974 H       
  31 H31           -1.9357    -4.3073    -0.8723 H       
  32 H32           -0.0884    -3.0311     0.1305 H       
@<TRIPOS>BOND
   1    1    2 1
   2    1    3 1
   3    1    8 2
   4    2    4 1
   5    2   24 1
   6    2   25 1
   7    3    6 1
   8    3    9 1
   9    4    5 1
  10    4   10 am
  11    5    6 1
  12    5   26 1
  13    5   27 1
  14    6   28 1
  15    6   29 1
  16    7    8 1
  17    7    9 2
  18    9   23 1
  19   10   11 2
  20   10   12 1
  21   12   13 ar
  22   12   17 ar
  23   13   14 ar
  24   13   22 1
  25   14   15 ar
  26   14   18 1
  27   15   16 ar
  28   15   30 1
  29   16   17 ar
  30   16   31 1
  31   17   32 1
  32   18   19 1
  33   18   20 1
  34   18   21 1

#	End of record

