#	Name: ASD00990112
#	Creating user name:	WinNT
#	Creation time:	15. 06. 2019 18:54

#	Modifying user name:	WinNT
#	Modification time:	15. 06. 2019 18:54

#	Program:	/corina/corina34_cracker 3.40 0067  02.08.2006

@<TRIPOS>MOLECULE
ASD00990112
  23   24    0    0    0
SMALL
NO_CHARGES


@<TRIPOS>ATOM
   1 C1            -0.0168     1.3862     0.0097 C.ar    
   2 C2             0.0021    -0.0041     0.0020 C.ar    
   3 C3            -1.1613    -0.7152     0.0088 C.ar    
   4 C4            -2.3941    -0.0437     0.0242 C.ar    
   5 C5            -2.4136     1.3638     0.0324 C.ar    
   6 C6            -1.2144     2.0694     0.0305 C.ar    
   7 Cl7            1.4784     2.2683     0.0001 Cl      
   8 C8            -3.6526     3.5018     0.0560 C.3     
   9 N9            -3.5441    -0.7441     0.0304 N.2     
  10 C10           -4.6982    -0.1409     0.0446 C.2     
  11 C11           -4.7662     1.3241     0.0542 C.2     
  12 N12           -3.6186     2.0372     0.0472 N.am    
  13 O13           -5.8439     1.8910     0.0675 O.2     
  14 C14           -3.6504     3.9957     1.4798 C.2     
  15 O15           -3.6232     3.2054     2.3933 O.2     
  16 O16           -3.6786     5.3136     1.7330 O.3     
  17 H17            0.9476    -0.5259    -0.0098 H       
  18 H18           -1.1345    -1.7948     0.0021 H       
  19 H19           -1.2216     3.1494     0.0371 H       
  20 H20           -2.7763     3.8887    -0.4642 H       
  21 H21           -4.5557     3.8473    -0.4471 H       
  22 H22           -5.6088    -0.7217     0.0491 H       
  23 H23           -3.6759     5.5823     2.6619 H       
@<TRIPOS>BOND
   1    1    2 ar
   2    1    7 1
   3    1    6 ar
   4    2    3 ar
   5    2   17 1
   6    3    4 ar
   7    3   18 1
   8    4    5 ar
   9    4    9 1
  10    5    6 ar
  11    5   12 1
  12    6   19 1
  13    8   14 1
  14    8   12 1
  15    8   20 1
  16    8   21 1
  17    9   10 2
  18   10   11 1
  19   10   22 1
  20   11   12 am
  21   11   13 2
  22   14   15 2
  23   14   16 1
  24   16   23 1

#	End of record

