#	Name: ASD01813580
#	Creating user name:	WinNT
#	Creation time:	15. 06. 2019 19:30

#	Modifying user name:	WinNT
#	Modification time:	15. 06. 2019 19:30

#	Program:	/corina/corina34_cracker 3.40 0067  02.08.2006

@<TRIPOS>MOLECULE
ASD01813580
  48   52    0    0    0
SMALL
NO_CHARGES


@<TRIPOS>ATOM
   1 C1             6.8948     1.6505    -0.3557 C.ar    
   2 C2             6.9792     0.2667    -0.3697 C.ar    
   3 C3             5.8441    -0.5105    -0.2600 C.ar    
   4 C4             4.5950     0.0946    -0.1328 C.ar    
   5 C5             4.5111     1.4973    -0.1183 C.ar    
   6 C6             5.6685     2.2718    -0.2307 C.ar    
   7 N7             3.4536    -0.6715    -0.0234 N.pl3   
   8 C8             2.2315    -0.1384     0.0998 C.2     
   9 C9             2.0235     1.2259     0.1260 C.2     
  10 C10            3.1844     2.1245     0.0167 C.2     
  11 O11            3.0537     3.3360     0.0352 O.2     
  12 C12            0.6660     1.7722     0.2616 C.2     
  13 O13            0.4758     3.1066     0.2859 O.3     
  14 O14           -0.2854     1.0208     0.3518 O.2     
  15 C15            3.5835    -2.1306    -0.0432 C.3     
  16 C16            3.4402    -2.6284    -1.4584 C.ar    
  17 N17            2.2378    -2.8253    -1.9591 N.ar    
  18 C18            2.0643    -3.2626    -3.2007 C.ar    
  19 C19            3.1622    -3.5288    -4.0177 C.ar    
  20 C20            4.4370    -3.3304    -3.5165 C.ar    
  21 C21            4.5727    -2.8670    -2.2155 C.ar    
  22 F22            5.9436    -1.8577    -0.2762 F       
  23 F23            5.5880     3.6204    -0.2164 F       
  24 C24            0.6936    -3.4696    -3.7217 C.ar    
  25 C25           -0.4262    -3.3093    -2.8702 C.ar    
  26 C26           -1.7245    -3.5139    -3.3969 C.ar    
  27 C27           -1.8815    -3.8708    -4.7459 C.ar    
  28 C28           -0.7869    -4.0196    -5.5438 C.ar    
  29 C29            0.4951    -3.8161    -5.0467 C.ar    
  30 N30           -0.2733    -2.9710    -1.5885 N.ar    
  31 C31           -1.3065    -2.8212    -0.7944 C.ar    
  32 C32           -2.6105    -3.0070    -1.2470 C.ar    
  33 C33           -2.8370    -3.3540    -2.5487 C.ar    
  34 H34            7.7928     2.2448    -0.4385 H       
  35 H35            7.9441    -0.2084    -0.4680 H       
  36 H36            1.3800    -0.7979     0.1810 H       
  37 H37           -0.4350     3.4186     0.3767 H       
  38 H38            4.5623    -2.4134     0.3441 H       
  39 H39            2.8051    -2.5732     0.5782 H       
  40 H40            3.0201    -3.8850    -5.0273 H       
  41 H41            5.3066    -3.5282    -4.1256 H       
  42 H42            5.5539    -2.7021    -1.7953 H       
  43 H43           -2.8702    -4.0278    -5.1512 H       
  44 H44           -0.9177    -4.2947    -6.5800 H       
  45 H45            1.3466    -3.9399    -5.6994 H       
  46 H46           -1.1417    -2.5471     0.2371 H       
  47 H47           -3.4416    -2.8770    -0.5697 H       
  48 H48           -3.8415    -3.5018    -2.9169 H       
@<TRIPOS>BOND
   1    1    2 ar
   2    1    6 ar
   3    1   34 1
   4    2    3 ar
   5    2   35 1
   6    3    4 ar
   7    3   22 1
   8    4    5 ar
   9    4    7 1
  10    5    6 ar
  11    5   10 1
  12    6   23 1
  13    7    8 1
  14    7   15 1
  15    8    9 2
  16    8   36 1
  17    9   10 1
  18    9   12 1
  19   10   11 2
  20   12   13 1
  21   12   14 2
  22   13   37 1
  23   15   16 1
  24   15   38 1
  25   15   39 1
  26   16   17 ar
  27   16   21 ar
  28   17   18 ar
  29   18   19 ar
  30   18   24 1
  31   19   20 ar
  32   19   40 1
  33   20   21 ar
  34   20   41 1
  35   21   42 1
  36   24   25 ar
  37   24   29 ar
  38   25   26 ar
  39   25   30 ar
  40   26   27 ar
  41   26   33 ar
  42   27   28 ar
  43   27   43 1
  44   28   29 ar
  45   28   44 1
  46   29   45 1
  47   30   31 ar
  48   31   32 ar
  49   31   46 1
  50   32   33 ar
  51   32   47 1
  52   33   48 1

#	End of record

