#	Name: ASD02500042
#	Creating user name:	WinNT
#	Creation time:	15. 06. 2019 20:22

#	Modifying user name:	WinNT
#	Modification time:	15. 06. 2019 20:22

#	Program:	/corina/corina34_cracker 3.40 0067  02.08.2006

@<TRIPOS>MOLECULE
ASD02500042
  30   30    0    0    0
SMALL
NO_CHARGES


@<TRIPOS>ATOM
   1 O1            -0.0175     1.4400     0.0100 O.3     
   2 C2             0.0021    -0.0041     0.0020 C.3     
   3 C3             1.1520    -0.3885     0.9592 C.3     
   4 C4             2.0729     0.8522     0.9571 C.3     
   5 C5             1.3704     1.8394    -0.0011 C.3     
   6 C6            -1.3278    -0.5576     0.5178 C.3     
   7 O7             2.1658     1.4091     2.2699 O.3     
   8 C8             1.5159     3.2737     0.5112 C.3     
   9 O9             1.9109     1.7234    -1.3189 O.3     
  10 O10           -2.3700    -0.2279    -0.4027 O.3     
  11 P11           -3.9061    -0.6539    -0.1772 P.3     
  12 O12           -3.9934    -2.2047     0.0276 O.co2   
  13 O13           -4.4688     0.0729     1.0915 O.co2   
  14 O14           -4.7511    -0.2445    -1.4314 O.co2   
  15 O15            1.8522    -1.5326     0.4666 O.3     
  16 O16            0.8601     4.1697    -0.3883 O.3     
  17 P17            0.8130     5.7628    -0.1602 P.3     
  18 O18            0.2186     6.0702     1.2563 O.co2   
  19 O19            2.2635     6.3471    -0.2559 O.co2   
  20 O20           -0.0888     6.4213    -1.2591 O.co2   
  21 H21            0.2045    -0.3753    -1.0026 H       
  22 H22            0.7676    -0.5771     1.9616 H       
  23 H23            3.0622     0.5929     0.5803 H       
  24 H24           -1.2574    -1.6411     0.6141 H       
  25 H25           -1.5506    -0.1200     1.4909 H       
  26 H26            2.5446     0.8082     2.9260 H       
  27 H27            1.0627     3.3544     1.4992 H       
  28 H28            2.5732     3.5315     0.5743 H       
  29 H29            1.5070     2.3204    -1.9636 H       
  30 H30            2.5851    -1.8176     1.0294 H       
@<TRIPOS>BOND
   1    1    2 1
   2    1    5 1
   3    2    3 1
   4    2    6 1
   5    2   21 1
   6    3    4 1
   7    3   15 1
   8    3   22 1
   9    4    5 1
  10    4    7 1
  11    4   23 1
  12    5    8 1
  13    5    9 1
  14    6   10 1
  15    6   24 1
  16    6   25 1
  17    7   26 1
  18    8   16 1
  19    8   27 1
  20    8   28 1
  21    9   29 1
  22   10   11 1
  23   11   12 ar
  24   11   13 ar
  25   11   14 ar
  26   15   30 1
  27   16   17 1
  28   17   18 ar
  29   17   19 ar
  30   17   20 ar

#	End of record

