#	Name: ASD01913076
#	Creating user name:	WinNT
#	Creation time:	15. 06. 2019 20:00

#	Modifying user name:	WinNT
#	Modification time:	15. 06. 2019 20:00

#	Program:	/corina/corina34_cracker 3.40 0067  02.08.2006

@<TRIPOS>MOLECULE
ASD01913076
  29   31    0    0    0
SMALL
NO_CHARGES


@<TRIPOS>ATOM
   1 N1            -0.0169     1.3963     0.0097 N.2     
   2 N2             0.0021    -0.0041     0.0020 N.pl3   
   3 C3             1.2264     1.8293     0.0002 C.2     
   4 C4             2.0818     0.7148    -0.0140 C.2     
   5 C5             1.3049    -0.4066    -0.0126 C.2     
   6 C6             1.7880    -1.8053    -0.0243 C.ar    
   7 C7             1.6517     3.2515     0.0038 C.ar    
   8 C8             0.8759    -2.8608    -0.0213 C.ar    
   9 C9             3.1571    -2.0727    -0.0441 C.ar    
  10 C10            0.6969     4.2661     0.0188 C.ar    
  11 C11            1.0966     5.5868     0.0226 C.ar    
  12 C12            2.4450     5.9046     0.0109 C.ar    
  13 C13            3.3976     4.8988    -0.0045 C.ar    
  14 C14            3.0067     3.5754    -0.0021 C.ar    
  15 F15            2.8320     7.1989     0.0142 F       
  16 C16            3.6023    -3.3782    -0.0555 C.ar    
  17 C17            2.6922    -4.4232    -0.0476 C.ar    
  18 C18            1.3313    -4.1628    -0.0327 C.ar    
  19 F19            3.1333    -5.7001    -0.0592 F       
  20 H20           -0.7746    -0.5852     0.0063 H       
  21 H21            3.1615     0.7411    -0.0241 H       
  22 H22           -0.1850    -2.6589    -0.0097 H       
  23 H23            3.8671    -1.2590    -0.0510 H       
  24 H24           -0.3544     4.0192     0.0272 H       
  25 H25            0.3572     6.3739     0.0343 H       
  26 H26            4.4478     5.1508    -0.0143 H       
  27 H27            3.7500     2.7920    -0.0138 H       
  28 H28            4.6619    -3.5863    -0.0708 H       
  29 H29            0.6260    -4.9807    -0.0266 H       
@<TRIPOS>BOND
   1    1    2 1
   2    1    3 2
   3    2    5 1
   4    2   20 1
   5    3    4 1
   6    3    7 1
   7    4    5 2
   8    4   21 1
   9    5    6 1
  10    6    8 ar
  11    6    9 ar
  12    7   10 ar
  13    7   14 ar
  14    8   18 ar
  15    8   22 1
  16    9   16 ar
  17    9   23 1
  18   10   11 ar
  19   10   24 1
  20   11   12 ar
  21   11   25 1
  22   12   13 ar
  23   12   15 1
  24   13   14 ar
  25   13   26 1
  26   14   27 1
  27   16   17 ar
  28   16   28 1
  29   17   18 ar
  30   17   19 1
  31   18   29 1

#	End of record

