#	Name: ASD04942004
#	Creating user name:	WinNT
#	Creation time:	15. 06. 2019 20:56

#	Modifying user name:	WinNT
#	Modification time:	15. 06. 2019 20:56

#	Program:	/corina/corina34_cracker 3.40 0067  02.08.2006

@<TRIPOS>MOLECULE
ASD04942004
  47   50    0    0    0
SMALL
NO_CHARGES


@<TRIPOS>ATOM
   1 C1            -0.1824     1.8449     2.3484 C.ar    
   2 C2            -0.1930     0.5199     2.7577 C.ar    
   3 C3             0.9875    -0.1630     2.9573 C.ar    
   4 C4             2.2050     0.4768     2.7474 C.ar    
   5 C5             2.2134     1.8183     2.3325 C.ar    
   6 C6             1.0131     2.4966     2.1351 C.ar    
   7 N7             3.5156     0.0579     2.8640 N.pl3   
   8 C8             4.3703     1.0683     2.5431 C.2     
   9 C9             3.6322     2.1991     2.2007 C.2     
  10 C10            4.1403     3.4573     1.8070 C.2     
  11 C11            3.1935     4.5800     1.4691 C.3     
  12 O12            3.9545     5.7595     1.0974 O.3     
  13 C13            3.2526     6.8602     0.7639 C.2     
  14 O14            5.3401     3.6341     1.7409 O.2     
  15 C15            3.9594     8.0965     0.3751 C.ar    
  16 O16            2.0382     6.8353     0.7832 O.2     
  17 N17            5.2857     8.1615     0.4547 N.ar    
  18 C18            5.9131     9.2664     0.1069 C.ar    
  19 C19            5.1977    10.3672    -0.3431 C.ar    
  20 N20            3.8808    10.3180    -0.4271 N.ar    
  21 C21            3.2350     9.2085    -0.0863 C.ar    
  22 N22            1.8566     9.1525    -0.1731 N.pl3   
  23 C23            3.9289    -1.2860     3.2755 C.3     
  24 C24            5.8431     0.9798     2.5566 C.ar    
  25 C25            6.5001     0.3755     3.6315 C.ar    
  26 C26            7.8770     0.2960     3.6372 C.ar    
  27 C27            8.6076     0.8129     2.5817 C.ar    
  28 C28            7.9637     1.4132     1.5140 C.ar    
  29 C29            6.5871     1.4947     1.4920 C.ar    
  30 H30           -1.1149     2.3669     2.1919 H       
  31 H31           -1.1353     0.0185     2.9221 H       
  32 H32            0.9674    -1.1945     3.2768 H       
  33 H33            1.0191     3.5282     1.8156 H       
  34 H34            2.5574     4.2806     0.6362 H       
  35 H35            2.5737     4.8061     2.3367 H       
  36 H36            6.9900     9.3159     0.1727 H       
  37 H37            5.7207    11.2689    -0.6256 H       
  38 H38            1.3358     9.9706    -0.1551 H       
  39 H39            1.4101     8.2950    -0.2521 H       
  40 H40            4.0221    -1.9228     2.3957 H       
  41 H41            4.8899    -1.2299     3.7869 H       
  42 H42            3.1823    -1.7052     3.9499 H       
  43 H43            5.9312    -0.0279     4.4561 H       
  44 H44            8.3862    -0.1705     4.4675 H       
  45 H45            9.6856     0.7478     2.5915 H       
  46 H46            8.5403     1.8150     0.6940 H       
  47 H47            6.0856     1.9592     0.6558 H       
@<TRIPOS>BOND
   1    1    2 ar
   2    1    6 ar
   3    1   30 1
   4    2    3 ar
   5    2   31 1
   6    3    4 ar
   7    3   32 1
   8    4    5 ar
   9    4    7 1
  10    5    6 ar
  11    5    9 1
  12    6   33 1
  13    7    8 1
  14    7   23 1
  15    8    9 2
  16    8   24 1
  17    9   10 1
  18   10   11 1
  19   10   14 2
  20   11   12 1
  21   11   34 1
  22   11   35 1
  23   12   13 1
  24   13   15 1
  25   13   16 2
  26   15   17 ar
  27   15   21 ar
  28   17   18 ar
  29   18   19 ar
  30   18   36 1
  31   19   20 ar
  32   19   37 1
  33   20   21 ar
  34   21   22 1
  35   22   38 1
  36   22   39 1
  37   23   40 1
  38   23   41 1
  39   23   42 1
  40   24   25 ar
  41   24   29 ar
  42   25   26 ar
  43   25   43 1
  44   26   27 ar
  45   26   44 1
  46   27   28 ar
  47   27   45 1
  48   28   29 ar
  49   28   46 1
  50   29   47 1

#	End of record

