#	Name: ASD01910673
#	Creating user name:	WinNT
#	Creation time:	15. 06. 2019 19:56

#	Modifying user name:	WinNT
#	Modification time:	15. 06. 2019 19:56

#	Program:	/corina/corina34_cracker 3.40 0067  02.08.2006

@<TRIPOS>MOLECULE
ASD01910673
  29   31    0    0    0
SMALL
NO_CHARGES


@<TRIPOS>ATOM
   1 C1            -0.0167     1.3796     0.0096 C.ar    
   2 C2             0.0021    -0.0041     0.0020 C.ar    
   3 C3             1.2070    -0.6874    -0.0131 C.ar    
   4 C4             2.4010     0.0118    -0.0208 C.ar    
   5 C5             2.3866     1.4112    -0.0131 C.ar    
   6 C6             1.1651     2.0903     0.0022 C.ar    
   7 C7             3.6171     2.1435    -0.0204 C.1     
   8 C8             4.6259     2.7440    -0.0264 C.1     
   9 C9             5.8565     3.4763    -0.0337 C.ar    
  10 C10            5.8399     4.8767    -0.0261 C.ar    
  11 C11            7.0132     5.5681    -0.0326 C.ar    
  12 C12            8.2373     4.8899    -0.0470 C.ar    
  13 C13            8.2528     3.4909    -0.0546 C.ar    
  14 C14            7.0787     2.7943    -0.0427 C.ar    
  15 C15            7.3422     7.0404    -0.0271 C.3     
  16 N16            8.8065     7.1331    -0.0391 N.am    
  17 C17            9.3189     5.8908    -0.0506 C.2     
  18 O18           10.5063     5.6297    -0.0622 O.2     
  19 F19            3.5765    -0.6541    -0.0351 F       
  20 F20            1.2162    -2.0384    -0.0200 F       
  21 H21           -0.9603     1.9048     0.0169 H       
  22 H22           -0.9274    -0.5540     0.0083 H       
  23 H23            1.1468     3.1702     0.0078 H       
  24 H24            4.8991     5.4069    -0.0153 H       
  25 H25            9.1942     2.9617    -0.0661 H       
  26 H26            7.0930     1.7144    -0.0487 H       
  27 H27            6.9291     7.5200    -0.9145 H       
  28 H28            6.9445     7.5099     0.8726 H       
  29 H29            9.3202     7.9559    -0.0389 H       
@<TRIPOS>BOND
   1    1    2 ar
   2    1    6 ar
   3    1   21 1
   4    2    3 ar
   5    2   22 1
   6    3    4 ar
   7    3   20 1
   8    4    5 ar
   9    4   19 1
  10    5    6 ar
  11    5    7 1
  12    6   23 1
  13    7    8 3
  14    8    9 1
  15    9   10 ar
  16    9   14 ar
  17   10   11 ar
  18   10   24 1
  19   11   12 ar
  20   11   15 1
  21   12   13 ar
  22   12   17 1
  23   13   14 ar
  24   13   25 1
  25   14   26 1
  26   15   16 1
  27   15   27 1
  28   15   28 1
  29   16   17 am
  30   16   29 1
  31   17   18 2

#	End of record

