#	Name: ASD03331362
#	Creating user name:	WinNT
#	Creation time:	15. 06. 2019 20:39

#	Modifying user name:	WinNT
#	Modification time:	15. 06. 2019 20:39

#	Program:	/corina/corina34_cracker 3.40 0067  02.08.2006

@<TRIPOS>MOLECULE
ASD03331362
  43   45    0    0    0
SMALL
NO_CHARGES


@<TRIPOS>ATOM
   1 C1             0.0310     1.4505    -0.1865 C.2     
   2 C2             0.1228     0.0923    -0.1251 C.2     
   3 C3             1.3977    -0.6644    -0.3991 C.3     
   4 C4             2.3493     0.2491    -1.1816 C.3     
   5 C5             2.4590     1.6096    -0.4855 C.3     
   6 N6             1.1370     2.2654    -0.5102 N.am    
   7 N7            -1.9653     0.7042     0.3577 N.2     
   8 N8            -1.0946    -0.3870     0.2104 N.pl3   
   9 C9            -1.2867     1.8121     0.1226 C.2     
  10 C10            0.9940     3.5682    -0.8245 C.2     
  11 O11           -0.1169     4.0491    -0.9315 O.2     
  12 O12            2.0822     4.3370    -1.0199 O.3     
  13 C13           -1.8255     3.1934     0.1697 C.ar    
  14 C14           -2.8384     3.5804    -0.7091 C.ar    
  15 C15           -3.3367     4.8687    -0.6608 C.ar    
  16 C16           -2.8335     5.7736     0.2559 C.ar    
  17 C17           -1.8280     5.3951     1.1301 C.ar    
  18 C18           -1.3264     4.1072     1.0948 C.ar    
  19 F19           -1.3404     6.2844     2.0226 F       
  20 F20           -3.3306     2.6976    -1.6055 F       
  21 C21            1.8553     5.6971    -1.4751 C.3     
  22 C22            1.0980     6.4758    -0.3976 C.3     
  23 C23            3.1999     6.3756    -1.7446 C.3     
  24 C24            1.0291     5.6728    -2.7625 C.3     
  25 H25            1.8613    -0.9540     0.5440 H       
  26 H26            1.1759    -1.5536    -0.9892 H       
  27 H27            3.3354    -0.2128    -1.2308 H       
  28 H28            1.9664     0.3896    -2.1924 H       
  29 H29            2.7767     1.4668     0.5473 H       
  30 H30            3.1848     2.2308    -1.0103 H       
  31 H31           -1.3267    -1.3214     0.3286 H       
  32 H32           -4.1203     5.1693    -1.3406 H       
  33 H33           -3.2258     6.7793     0.2902 H       
  34 H34           -0.5460     3.8116     1.7803 H       
  35 H35            1.7208     6.5638     0.4926 H       
  36 H36            0.8555     7.4707    -0.7712 H       
  37 H37            0.1781     5.9477    -0.1466 H       
  38 H38            3.7394     5.8209    -2.5122 H       
  39 H39            3.0295     7.3966    -2.0863 H       
  40 H40            3.7885     6.3929    -0.8274 H       
  41 H41            0.0712     5.1894    -2.5705 H       
  42 H42            0.8587     6.6938    -3.1042 H       
  43 H43            1.5686     5.1180    -3.5301 H       
@<TRIPOS>BOND
   1    1    2 2
   2    1    6 1
   3    1    9 1
   4    2    3 1
   5    2    8 1
   6    3    4 1
   7    3   25 1
   8    3   26 1
   9    4    5 1
  10    4   27 1
  11    4   28 1
  12    5    6 1
  13    5   29 1
  14    5   30 1
  15    6   10 am
  16    7    8 1
  17    7    9 2
  18    8   31 1
  19    9   13 1
  20   10   11 2
  21   10   12 1
  22   12   21 1
  23   13   14 ar
  24   13   18 ar
  25   14   15 ar
  26   14   20 1
  27   15   16 ar
  28   15   32 1
  29   16   17 ar
  30   16   33 1
  31   17   18 ar
  32   17   19 1
  33   18   34 1
  34   21   22 1
  35   21   24 1
  36   21   23 1
  37   22   35 1
  38   22   36 1
  39   22   37 1
  40   23   38 1
  41   23   39 1
  42   23   40 1
  43   24   41 1
  44   24   42 1
  45   24   43 1

#	End of record

