#	Name: ASD03092137
#	Creating user name:	WinNT
#	Creation time:	15. 06. 2019 20:32

#	Modifying user name:	WinNT
#	Modification time:	15. 06. 2019 20:32

#	Program:	/corina/corina34_cracker 3.40 0067  02.08.2006

@<TRIPOS>MOLECULE
ASD03092137
  46   48    0    0    0
SMALL
NO_CHARGES


@<TRIPOS>ATOM
   1 N1            -0.3030     1.4428    -0.3247 N.pl3   
   2 C2            -0.3541     0.1578     0.1281 C.2     
   3 C3            -1.6623    -0.1305     0.3946 C.2     
   4 C4            -2.4210     1.0081     0.0957 C.2     
   5 N5            -1.6090     1.9489    -0.3283 N.2     
   6 N6            -3.8097     1.1252     0.2310 N.pl3   
   7 C7            -4.4319     2.3584     0.0130 C.ar    
   8 C8            -5.7582     2.4054    -0.3962 C.ar    
   9 C9            -6.3708     3.6247    -0.6109 C.ar    
  10 C10           -5.6635     4.7993    -0.4190 C.ar    
  11 C11           -3.7260     3.5384     0.2109 C.ar    
  12 C12            0.7962    -0.7567     0.2986 C.ar    
  13 C13            0.9042     2.1674    -0.7295 C.3     
  14 C14            1.9905    -0.5469    -0.3986 C.ar    
  15 C15            3.0392    -1.4256    -0.2093 C.ar    
  16 N16            2.9239    -2.4502     0.6152 N.ar    
  17 C17            1.8146    -2.6832     1.2914 C.ar    
  18 C18            0.7212    -1.8527     1.1665 C.ar    
  19 C19            1.7443    -3.8698     2.2177 C.3     
  20 C20           -4.3407     4.7549    -0.0110 C.ar    
  21 Cl21           4.5282    -1.1798    -1.0673 Cl      
  22 C22            1.0667     2.0793    -2.2482 C.3     
  23 O23           -0.0473     2.7093    -2.8839 O.3     
  24 F24           -6.2644     5.9907    -0.6305 F       
  25 C25            2.3582     2.7861    -2.6648 C.3     
  26 C26           -7.8100     3.6764    -1.0550 C.3     
  27 F27           -8.3066     2.3745    -1.1798 F       
  28 F28           -8.5656     4.3749    -0.1071 F       
  29 F29           -7.8938     4.3279    -2.2902 F       
  30 H30           -2.0436    -1.0692     0.7686 H       
  31 H31           -4.3401     0.3509     0.4759 H       
  32 H32           -6.3102     1.4894    -0.5467 H       
  33 H33           -2.6960     3.5043     0.5337 H       
  34 H34            0.8168     3.2128    -0.4334 H       
  35 H35            1.7739     1.7240    -0.2446 H       
  36 H36            2.0910     0.2892    -1.0748 H       
  37 H37           -0.1830    -2.0499     1.7232 H       
  38 H38            2.0758    -3.5738     3.2131 H       
  39 H39            0.7170    -4.2303     2.2691 H       
  40 H40            2.3895    -4.6635     1.8410 H       
  41 H41           -3.7908     5.6724     0.1377 H       
  42 H42            1.1122     1.0325    -2.5487 H       
  43 H43           -0.0109     2.6911    -3.8500 H       
  44 H44            3.2080     2.3055    -2.1799 H       
  45 H45            2.4740     2.7233    -3.7468 H       
  46 H46            2.3127     3.8329    -2.3643 H       
@<TRIPOS>BOND
   1    1    2 1
   2    1   13 1
   3    1    5 1
   4    2    3 2
   5    2   12 1
   6    3    4 1
   7    3   30 1
   8    4    5 2
   9    4    6 1
  10    6    7 1
  11    6   31 1
  12    7    8 ar
  13    7   11 ar
  14    8    9 ar
  15    8   32 1
  16    9   10 ar
  17    9   26 1
  18   10   20 ar
  19   10   24 1
  20   11   20 ar
  21   11   33 1
  22   12   14 ar
  23   12   18 ar
  24   13   22 1
  25   13   34 1
  26   13   35 1
  27   14   15 ar
  28   14   36 1
  29   15   16 ar
  30   15   21 1
  31   16   17 ar
  32   17   18 ar
  33   17   19 1
  34   18   37 1
  35   19   38 1
  36   19   39 1
  37   19   40 1
  38   20   41 1
  39   22   23 1
  40   22   25 1
  41   22   42 1
  42   23   43 1
  43   25   44 1
  44   25   45 1
  45   25   46 1
  46   26   27 1
  47   26   28 1
  48   26   29 1

#	End of record

