#	Name: ASD01940036
#	Creating user name:	WinNT
#	Creation time:	15. 06. 2019 20:11

#	Modifying user name:	WinNT
#	Modification time:	15. 06. 2019 20:11

#	Program:	/corina/corina34_cracker 3.40 0067  02.08.2006

@<TRIPOS>MOLECULE
ASD01940036
  47   49    0    0    0
SMALL
NO_CHARGES


@<TRIPOS>ATOM
   1 C1            -0.1653     1.1879    -0.0603 C.ar    
   2 C2            -0.1625    -0.0643    -0.6613 C.ar    
   3 C3            -1.2726    -0.8795    -0.5627 C.ar    
   4 C4            -2.3908    -0.4479     0.1362 C.ar    
   5 C5            -2.3945     0.8030     0.7365 C.ar    
   6 C6            -1.2829     1.6169     0.6440 C.ar    
   7 N7             0.9596     2.0145    -0.1593 N.pl3   
   8 C8             0.8041     3.3858    -0.2530 C.2     
   9 C9             1.8028     4.3489    -0.2308 C.2     
  10 C10            1.3229     5.6545    -0.3471 C.2     
  11 N11            0.0374     5.7990    -0.4584 N.2     
  12 S12           -0.6676     4.2584    -0.4292 S.3     
  13 O13            2.1612     6.7233    -0.3436 O.3     
  14 C14            3.2323     4.0247    -0.0965 C.2     
  15 N15            3.8066     3.9443     1.1550 N.pl3   
  16 N16            3.9573     3.8129    -1.1631 N.2     
  17 C17            5.2294     3.6216     1.2886 C.3     
  18 C18            6.0576     4.9007     1.1518 C.3     
  19 C19            5.4833     2.9940     2.6607 C.3     
  20 O20            5.2166     3.9574     3.6819 O.3     
  21 O21           -3.4836    -1.2510     0.2325 O.3     
  22 C22           -3.3710    -2.3982     0.9527 C.ar    
  23 C23           -4.4159    -3.3121     0.9723 C.ar    
  24 C24           -4.2986    -4.4784     1.7053 C.ar    
  25 C25           -3.1414    -4.7343     2.4190 C.ar    
  26 C26           -2.2096    -2.6602     1.6648 C.ar    
  27 C27           -2.0990    -3.8242     2.4005 C.ar    
  28 Cl28          -5.8685    -2.9905     0.0777 Cl      
  29 Cl29          -2.9968    -6.1989     3.3397 Cl      
  30 H30            0.7076    -0.4001    -1.2059 H       
  31 H31           -1.2706    -1.8531    -1.0300 H       
  32 H32           -3.2654     1.1384     1.2800 H       
  33 H33           -1.2858     2.5904     1.1116 H       
  34 H34            1.8483     1.6258    -0.1623 H       
  35 H35            2.4744     6.9804    -1.2216 H       
  36 H36            3.2685     4.1015     1.9466 H       
  37 H37            4.8993     3.5992    -1.0746 H       
  38 H38            5.5171     2.9172     0.5081 H       
  39 H39            7.1161     4.6606     1.2512 H       
  40 H40            5.8767     5.3478     0.1743 H       
  41 H41            5.7699     5.6051     1.9323 H       
  42 H42            4.8280     2.1331     2.7934 H       
  43 H43            6.5228     2.6729     2.7267 H       
  44 H44            5.3570     3.6277     4.5800 H       
  45 H45           -5.1110    -5.1900     1.7211 H       
  46 H46           -1.3939    -1.9526     1.6473 H       
  47 H47           -1.1968    -4.0259     2.9587 H       
@<TRIPOS>BOND
   1    1    2 ar
   2    1    7 1
   3    1    6 ar
   4    2    3 ar
   5    2   30 1
   6    3    4 ar
   7    3   31 1
   8    4    5 ar
   9    4   21 1
  10    5    6 ar
  11    5   32 1
  12    6   33 1
  13    7    8 1
  14    7   34 1
  15    8    9 2
  16    8   12 1
  17    9   10 1
  18    9   14 1
  19   10   11 2
  20   10   13 1
  21   11   12 1
  22   13   35 1
  23   14   15 1
  24   14   16 2
  25   15   17 1
  26   15   36 1
  27   16   37 1
  28   17   18 1
  29   17   19 1
  30   17   38 1
  31   18   39 1
  32   18   40 1
  33   18   41 1
  34   19   20 1
  35   19   42 1
  36   19   43 1
  37   20   44 1
  38   21   22 1
  39   22   23 ar
  40   22   26 ar
  41   23   24 ar
  42   23   28 1
  43   24   25 ar
  44   24   45 1
  45   25   27 ar
  46   25   29 1
  47   26   27 ar
  48   26   46 1
  49   27   47 1

#	End of record

