#	Name: ASD05143128
#	Creating user name:	WinNT
#	Creation time:	15. 06. 2019 20:57

#	Modifying user name:	WinNT
#	Modification time:	15. 06. 2019 20:57

#	Program:	/corina/corina34_cracker 3.40 0067  02.08.2006

@<TRIPOS>MOLECULE
ASD05143128
 147  150    0    0    0
SMALL
NO_CHARGES


@<TRIPOS>ATOM
   1 C1            -0.0344     2.1660     4.4072 C.2     
   2 C2             0.6848     1.0333     5.0934 C.3     
   3 N3             0.6483     3.0161     3.6150 N.am    
   4 O4            -1.2285     2.3095     4.5638 O.2     
   5 C5            -0.0508     4.1172     2.9479 C.3     
   6 C6            -1.1377     3.5509     2.0322 C.3     
   7 C7            -0.6822     5.0119     3.9833 C.2     
   8 C8            -0.4870     2.7438     0.9069 C.3     
   9 C9            -1.5740     2.1774    -0.0089 C.3     
  10 N10           -0.9509     1.4047    -1.0863 N.pl3   
  11 C11           -1.7348     0.7966    -2.0382 C.2     
  12 N12           -1.1501     0.0714    -3.0493 N.pl3   
  13 N13           -3.0322     0.9077    -1.9820 N.2     
  14 O14           -0.8827     4.5946     5.1043 O.2     
  15 N15           -1.0241     6.2758     3.6635 N.am    
  16 C16           -1.6380     7.1455     4.6700 C.3     
  17 C17           -0.6036     8.1559     5.1700 C.3     
  18 C18            0.7059     7.4315     5.4876 C.3     
  19 C19            1.5561     7.3620     4.2455 C.2     
  20 N20            2.8831     7.6738     4.3383 N.am    
  21 C21            3.6479     7.5740     3.0743 C.3     
  22 C22            3.5579     8.9132     2.3401 C.3     
  23 C23            3.8524     8.7002     0.8538 C.3     
  24 C24            4.6590     9.8849     0.3182 C.3     
  25 N25            4.2230    10.1724    -1.0631 N.am    
  26 C26            6.1261     9.5406     0.3233 C.2     
  27 N27            6.8333     9.6217     1.4678 N.am    
  28 O28            6.6705     9.1906    -0.7024 O.2     
  29 C29            3.2909    11.1524    -1.2150 C.2     
  30 O30            2.8627    11.7477    -0.2490 O.2     
  31 C31            2.7980    11.4889    -2.5988 C.3     
  32 N32            1.5445    12.2681    -2.4760 N.am    
  33 C33            3.8515    12.3226    -3.3310 C.3     
  34 C34            0.3989    11.5834    -2.7682 C.2     
  35 O35            0.4439    10.4199    -3.1076 O.2     
  36 C36           -0.9219    12.3011    -2.6604 C.3     
  37 N37           -1.9841    11.3090    -2.4005 N.am    
  38 C38           -0.8664    13.3065    -1.5085 C.3     
  39 C39           -2.8745    11.6135    -1.4166 C.2     
  40 O40           -2.7750    12.6510    -0.7963 O.2     
  41 C41           -3.9859    10.6432    -1.1099 C.3     
  42 C42            3.4101    12.5532    -4.7533 C.2     
  43 C43            2.5205    13.6157    -5.2282 C.ar    
  44 C44            2.3994    13.4293    -6.6172 C.ar    
  45 N45            3.1631    12.3325    -6.9480 N.pl3   
  46 C46            3.7621    11.8274    -5.8262 C.2     
  47 C47            1.8459    14.6674    -4.6049 C.ar    
  48 C48            1.0704    15.5113    -5.3487 C.ar    
  49 C49            0.9472    15.3313    -6.7198 C.ar    
  50 C50            1.6046    14.3009    -7.3550 C.ar    
  51 N51           -4.1969    10.6111     0.3554 N.am    
  52 C52           -3.5995     9.2475    -1.6035 C.3     
  53 C53           -4.7475     8.2982    -1.3752 C.ar    
  54 C54           -5.8116     8.2759    -2.2570 C.ar    
  55 C55           -6.8648     7.4051    -2.0475 C.ar    
  56 C56           -6.8533     6.5565    -0.9566 C.ar    
  57 C57           -5.7885     6.5781    -0.0751 C.ar    
  58 C58           -4.7335     7.4456    -0.2869 C.ar    
  59 C59           -2.8019     7.8804     4.0564 C.2     
  60 O60           -3.9336     7.6672     4.4368 O.2     
  61 C61           -0.5300    12.5740    -0.2080 C.3     
  62 C62           -0.6097    13.5537     0.9644 C.3     
  63 N63           -0.2876    12.8524     2.2096 N.pl3   
  64 C64           -0.2948    13.5335     3.4039 C.2     
  65 N65           -0.6043    14.8728     3.4296 N.pl3   
  66 N66           -0.0082    12.9095     4.5118 N.2     
  67 N67           -2.5648     8.7867     3.0687 N.am    
  68 C68           -3.7438     9.4755     2.5066 C.3     
  69 C69           -3.5754     9.5876     1.0133 C.2     
  70 O70           -2.9005     8.7834     0.4062 O.2     
  71 C71           -3.8593    10.8742     3.1160 C.3     
  72 C72           -4.1340    10.7574     4.5931 C.2     
  73 N73           -4.2751    11.8689     5.3422 N.am    
  74 C74           -5.8241     9.2012    -3.4464 C.3     
  75 O75           -4.2281     9.6633     5.1078 O.2     
  76 F76           -6.9942     8.9955    -4.1850 F       
  77 F77           -5.7782    10.5281    -3.0055 F       
  78 F78           -4.7114     8.9391    -4.2528 F       
  79 O79            1.0715     7.0348     3.1829 O.2     
  80 H80            1.4591     1.4368     5.7458 H       
  81 H81           -0.0261     0.4576     5.6861 H       
  82 H82            1.1414     0.3862     4.3445 H       
  83 H83            1.6026     2.8989     3.4865 H       
  84 H84            0.6601     4.6929     2.3552 H       
  85 H85           -1.7977     2.9031     2.6091 H       
  86 H86           -1.7157     4.3701     1.6044 H       
  87 H87            0.1730     3.3916     0.3299 H       
  88 H88            0.0909     1.9246     1.3347 H       
  89 H89           -2.2340     1.5297     0.5681 H       
  90 H90           -2.1519     2.9967    -0.4366 H       
  91 H91            0.0146     1.3220    -1.1281 H       
  92 H92           -0.1845    -0.0113    -3.0911 H       
  93 H93           -1.7031    -0.3576    -3.7209 H       
  94 H94           -3.5853     0.4787    -2.6536 H       
  95 H95           -0.8638     6.6095     2.7670 H       
  96 H96           -1.9897     6.5414     5.5064 H       
  97 H97           -0.4262     8.9058     4.3991 H       
  98 H98           -0.9773     8.6426     6.0709 H       
  99 H99            1.2425     7.9753     6.2651 H       
 100 H100           0.4875     6.4218     5.8354 H       
 101 H101           3.2955     7.9423     5.1742 H       
 102 H102           4.6910     7.3474     3.2950 H       
 103 H103           3.2239     6.7863     2.4516 H       
 104 H104           2.5553     9.3248     2.4565 H       
 105 H105           4.2865     9.6072     2.7591 H       
 106 H106           4.4260     7.7823     0.7251 H       
 107 H107           2.9139     8.6219     0.3051 H       
 108 H108           4.4847    10.7590     0.9456 H       
 109 H109           4.5821     9.6877    -1.8228 H       
 110 H110           6.3979     9.9016     2.2881 H       
 111 H111           7.7776     9.4000     1.4711 H       
 112 H112           2.6050    10.5699    -3.1522 H       
 113 H113           1.5373    13.2000    -2.2070 H       
 114 H114           3.9700    13.2820    -2.8273 H       
 115 H115           4.8027    11.7904    -3.3275 H       
 116 H116          -1.1308    12.8237    -3.5939 H       
 117 H117          -2.0442    10.4825    -2.9046 H       
 118 H118          -0.0990    14.0528    -1.7141 H       
 119 H119          -1.8340    13.7984    -1.4086 H       
 120 H120          -4.9016    10.9678    -1.6041 H       
 121 H121           3.2644    11.9736    -7.8434 H       
 122 H122           4.4151    10.9674    -5.8059 H       
 123 H123           1.9365    14.8131    -3.5386 H       
 124 H124           0.5488    16.3246    -4.8661 H       
 125 H125           0.3302    16.0064    -7.2942 H       
 126 H126           1.5027    14.1695    -8.4221 H       
 127 H127          -4.7384    11.2709     0.8161 H       
 128 H128          -3.3690     9.2895    -2.6680 H       
 129 H129          -2.7244     8.8977    -1.0558 H       
 130 H130          -7.6966     7.3882    -2.7361 H       
 131 H131          -7.6764     5.8767    -0.7926 H       
 132 H132          -5.7797     5.9152     0.7775 H       
 133 H133          -3.9017     7.4625     0.4017 H       
 134 H134          -1.2419    11.7633    -0.0531 H       
 135 H135           0.4783    12.1650    -0.2718 H       
 136 H136           0.1021    14.3645     0.8095 H       
 137 H137          -1.6180    13.9628     1.0282 H       
 138 H138          -0.0692    11.9074     2.1915 H       
 139 H139          -0.8176    15.3372     2.6051 H       
 140 H140          -0.6094    15.3533     4.2722 H       
 141 H141          -0.0132    13.3900     5.3544 H       
 142 H142          -1.6671     8.9709     2.7506 H       
 143 H143          -4.6432     8.9019     2.7307 H       
 144 H144          -2.9261    11.4159     2.9616 H       
 145 H145          -4.6761    11.4133     2.6360 H       
 146 H146          -4.1998    12.7440     4.9306 H       
 147 H147          -4.4519    11.7938     6.2930 H       
@<TRIPOS>BOND
   1    1    2 1
   2    1    3 am
   3    1    4 2
   4    2   80 1
   5    2   81 1
   6    2   82 1
   7    3    5 1
   8    3   83 1
   9    5    6 1
  10    5    7 1
  11    5   84 1
  12    6    8 1
  13    6   85 1
  14    6   86 1
  15    7   14 2
  16    7   15 am
  17    8    9 1
  18    8   87 1
  19    8   88 1
  20    9   10 1
  21    9   89 1
  22    9   90 1
  23   10   11 1
  24   10   91 1
  25   11   12 1
  26   11   13 2
  27   12   92 1
  28   12   93 1
  29   13   94 1
  30   15   16 1
  31   15   95 1
  32   16   17 1
  33   16   59 1
  34   16   96 1
  35   17   18 1
  36   17   97 1
  37   17   98 1
  38   18   19 1
  39   18   99 1
  40   18  100 1
  41   19   20 am
  42   19   79 2
  43   20   21 1
  44   20  101 1
  45   21   22 1
  46   21  102 1
  47   21  103 1
  48   22   23 1
  49   22  104 1
  50   22  105 1
  51   23   24 1
  52   23  106 1
  53   23  107 1
  54   24   25 1
  55   24   26 1
  56   24  108 1
  57   25   29 am
  58   25  109 1
  59   26   27 am
  60   26   28 2
  61   27  110 1
  62   27  111 1
  63   29   30 2
  64   29   31 1
  65   31   32 1
  66   31   33 1
  67   31  112 1
  68   32   34 am
  69   32  113 1
  70   33   42 1
  71   33  114 1
  72   33  115 1
  73   34   35 2
  74   34   36 1
  75   36   37 1
  76   36   38 1
  77   36  116 1
  78   37   39 am
  79   37  117 1
  80   38   61 1
  81   38  118 1
  82   38  119 1
  83   39   40 2
  84   39   41 1
  85   41   51 1
  86   41   52 1
  87   41  120 1
  88   42   43 1
  89   42   46 2
  90   43   44 ar
  91   43   47 ar
  92   44   45 1
  93   44   50 ar
  94   45   46 1
  95   45  121 1
  96   46  122 1
  97   47   48 ar
  98   47  123 1
  99   48   49 ar
 100   48  124 1
 101   49   50 ar
 102   49  125 1
 103   50  126 1
 104   51   69 am
 105   51  127 1
 106   52   53 1
 107   52  128 1
 108   52  129 1
 109   53   54 ar
 110   53   58 ar
 111   54   55 ar
 112   54   74 1
 113   55   56 ar
 114   55  130 1
 115   56   57 ar
 116   56  131 1
 117   57   58 ar
 118   57  132 1
 119   58  133 1
 120   59   60 2
 121   59   67 am
 122   61   62 1
 123   61  134 1
 124   61  135 1
 125   62   63 1
 126   62  136 1
 127   62  137 1
 128   63   64 1
 129   63  138 1
 130   64   65 1
 131   64   66 2
 132   65  139 1
 133   65  140 1
 134   66  141 1
 135   67   68 1
 136   67  142 1
 137   68   69 1
 138   68   71 1
 139   68  143 1
 140   69   70 2
 141   71   72 1
 142   71  144 1
 143   71  145 1
 144   72   73 am
 145   72   75 2
 146   73  146 1
 147   73  147 1
 148   74   76 1
 149   74   77 1
 150   74   78 1

#	End of record

