#	Name: ASD01915288
#	Creating user name:	WinNT
#	Creation time:	15. 06. 2019 20:05

#	Modifying user name:	WinNT
#	Modification time:	15. 06. 2019 20:05

#	Program:	/corina/corina34_cracker 3.40 0067  02.08.2006

@<TRIPOS>MOLECULE
ASD01915288
  49   51    0    0    0
SMALL
NO_CHARGES


@<TRIPOS>ATOM
   1 C1             0.0045     1.4651     0.0095 C.2     
   2 C2             0.0482    -0.0409    -0.0228 C.3     
   3 N3             1.1514     2.1729     0.0025 N.am    
   4 O4            -1.0629     2.0403     0.0367 O.2     
   5 O5            -1.2844    -0.5566    -0.0083 O.3     
   6 C6            -1.3558    -1.9835    -0.0367 C.3     
   7 C7            -2.7997    -2.4147    -0.0184 C.ar    
   8 C8            -3.4846    -2.5875    -1.2066 C.ar    
   9 C9            -4.8091    -2.9829    -1.1898 C.ar    
  10 C10           -5.4485    -3.2061     0.0153 C.ar    
  11 C11           -4.7633    -3.0342     1.2035 C.ar    
  12 C12           -3.4376    -2.6429     1.1866 C.ar    
  13 C13            1.1313     3.6432     0.0336 C.3     
  14 C14            2.0567     4.1190     1.1586 C.3     
  15 N15            3.3860     3.5196     0.9813 N.3     
  16 C16            3.3295     2.0558     1.0913 C.3     
  17 C17            2.4564     1.4953    -0.0302 C.3     
  18 C18            4.3036     4.0560     1.8919 C.ar    
  19 C19            4.6699     5.3974     1.8063 C.ar    
  20 C20            5.5784     5.9228     2.7101 C.ar    
  21 C21            6.1201     5.1166     3.6943 C.ar    
  22 C22            5.7573     3.7853     3.7801 C.ar    
  23 C23            4.8466     3.2548     2.8858 C.ar    
  24 O24            4.1369     6.1890     0.8372 O.3     
  25 C25            4.5585     7.5542     0.8099 C.3     
  26 H26            0.5554    -0.3703    -0.9296 H       
  27 H27            0.5892    -0.4075     0.8497 H       
  28 H28           -0.8777    -2.3532    -0.9438 H       
  29 H29           -0.8440    -2.3904     0.8354 H       
  30 H30           -2.9850    -2.4131    -2.1481 H       
  31 H31           -5.3444    -3.1172    -2.1181 H       
  32 H32           -6.4835    -3.5143     0.0285 H       
  33 H33           -5.2630    -3.2082     2.1450 H       
  34 H34           -2.9023    -2.5086     2.1149 H       
  35 H35            1.4839     4.0345    -0.9207 H       
  36 H36            0.1160     3.9916     0.2227 H       
  37 H37            2.1402     5.2053     1.1259 H       
  38 H38            1.6457     3.8143     2.1210 H       
  39 H39            4.3362     1.6458     1.0099 H       
  40 H40            2.9008     1.7798     2.0547 H       
  41 H41            2.3182     0.4238     0.1141 H       
  42 H42            2.9338     1.6794    -0.9927 H       
  43 H43            5.8640     6.9624     2.6459 H       
  44 H44            6.8290     5.5280     4.3977 H       
  45 H45            6.1830     3.1595     4.5504 H       
  46 H46            4.5645     2.2145     2.9552 H       
  47 H47            4.3001     8.0332     1.7543 H       
  48 H48            5.6377     7.5983     0.6635 H       
  49 H49            4.0592     8.0723    -0.0089 H       
@<TRIPOS>BOND
   1    1    2 1
   2    1    3 am
   3    1    4 2
   4    2    5 1
   5    2   26 1
   6    2   27 1
   7    3   13 1
   8    3   17 1
   9    5    6 1
  10    6    7 1
  11    6   28 1
  12    6   29 1
  13    7    8 ar
  14    7   12 ar
  15    8    9 ar
  16    8   30 1
  17    9   10 ar
  18    9   31 1
  19   10   11 ar
  20   10   32 1
  21   11   12 ar
  22   11   33 1
  23   12   34 1
  24   13   14 1
  25   13   35 1
  26   13   36 1
  27   14   15 1
  28   14   37 1
  29   14   38 1
  30   15   16 1
  31   15   18 1
  32   16   17 1
  33   16   39 1
  34   16   40 1
  35   17   41 1
  36   17   42 1
  37   18   19 ar
  38   18   23 ar
  39   19   20 ar
  40   19   24 1
  41   20   21 ar
  42   20   43 1
  43   21   22 ar
  44   21   44 1
  45   22   23 ar
  46   22   45 1
  47   23   46 1
  48   24   25 1
  49   25   47 1
  50   25   48 1
  51   25   49 1

#	End of record

