#	Name: ASD03331542
#	Creating user name:	WinNT
#	Creation time:	15. 06. 2019 20:39

#	Modifying user name:	WinNT
#	Modification time:	15. 06. 2019 20:39

#	Program:	/corina/corina34_cracker 3.40 0067  02.08.2006

@<TRIPOS>MOLECULE
ASD03331542
  59   61    0    0    0
SMALL
NO_CHARGES


@<TRIPOS>ATOM
   1 C1             0.3127     1.2597     0.7093 C.2     
   2 C2            -0.9512     1.6470     0.6245 C.2     
   3 C3             1.4737     2.1439     0.5106 C.2     
   4 N4             2.7805     1.7451     0.4585 N.pl3   
   5 C5             3.5363     2.8593     0.2764 C.2     
   6 C6             2.6826     3.9188     0.2041 C.2     
   7 N7             1.4261     3.4465     0.3480 N.2     
   8 C8             3.2787     0.3710     0.5657 C.3     
   9 C9             4.7007     0.3876     1.1311 C.3     
  10 C10            5.7112     0.4987    -0.0094 C.3     
  11 C11            5.5085     1.8010    -0.7776 C.3     
  12 C12            5.0392     2.8953     0.1863 C.3     
  13 C13            3.0626     5.3279    -0.0005 C.2     
  14 O14            4.2343     5.6302    -0.1223 O.2     
  15 N15            2.1117     6.2816    -0.0525 N.am    
  16 C16            2.4894     7.6824    -0.2558 C.3     
  17 C17            1.4206     8.5787     0.3145 C.2     
  18 C18            1.3459     7.5774    -2.4748 C.3     
  19 N19            1.7509     9.7832     0.8211 N.am    
  20 O20            0.2633     8.2162     0.3176 O.2     
  21 C21            2.6404     7.9577    -1.7533 C.3     
  22 C22            2.9284     9.4443    -1.9720 C.3     
  23 C23            3.7978     7.1266    -2.3105 C.3     
  24 C24            0.7305    10.6092     1.4712 C.3     
  25 C25           -1.8857     0.4885     0.8852 C.3     
  26 C26           -1.0044    -0.5863     1.5615 C.3     
  27 C27            0.4015    -0.2112     1.0442 C.3     
  28 H28           -1.2704     2.6541     0.4002 H       
  29 H29            2.6301    -0.2000     1.2301 H       
  30 H30            3.2854    -0.0913    -0.4214 H       
  31 H31            4.8145     1.2406     1.8002 H       
  32 H32            4.8807    -0.5331     1.6861 H       
  33 H33            6.7210     0.4756     0.4003 H       
  34 H34            5.5820    -0.3440    -0.6886 H       
  35 H35            6.4497     2.1015    -1.2379 H       
  36 H36            4.7564     1.6524    -1.5524 H       
  37 H37            5.3591     3.8692    -0.1843 H       
  38 H38            5.4680     2.7204     1.1730 H       
  39 H39            1.1772     6.0405     0.0447 H       
  40 H40            3.4360     7.8801     0.2472 H       
  41 H41            0.5213     8.1695    -2.0778 H       
  42 H42            1.4534     7.7736    -3.5416 H       
  43 H43            1.1407     6.5183    -2.3189 H       
  44 H44            2.6643    10.1031     0.7552 H       
  45 H45            3.8619     9.7103    -1.4761 H       
  46 H46            3.0144     9.6445    -3.0400 H       
  47 H47            2.1140    10.0373    -1.5556 H       
  48 H48            3.5927     6.0675    -2.1546 H       
  49 H49            3.9054     7.3227    -3.3773 H       
  50 H50            4.7201     7.3975    -1.7965 H       
  51 H51           -0.0643    10.8319     0.7593 H       
  52 H52            0.3152    10.0703     2.3227 H       
  53 H53            1.1815    11.5400     1.8151 H       
  54 H54           -2.6913     0.7937     1.5529 H       
  55 H55           -2.2921     0.1105    -0.0529 H       
  56 H56           -1.0518    -0.5035     2.6473 H       
  57 H57           -1.2890    -1.5866     1.2351 H       
  58 H58            0.6418    -0.7848     0.1490 H       
  59 H59            1.1491    -0.3836     1.8184 H       
@<TRIPOS>BOND
   1    1    2 2
   2    1    3 1
   3    1   27 1
   4    2   25 1
   5    2   28 1
   6    3    4 1
   7    3    7 2
   8    4    5 1
   9    4    8 1
  10    5    6 2
  11    5   12 1
  12    6    7 1
  13    6   13 1
  14    8    9 1
  15    8   29 1
  16    8   30 1
  17    9   10 1
  18    9   31 1
  19    9   32 1
  20   10   11 1
  21   10   33 1
  22   10   34 1
  23   11   12 1
  24   11   35 1
  25   11   36 1
  26   12   37 1
  27   12   38 1
  28   13   14 2
  29   13   15 am
  30   15   16 1
  31   15   39 1
  32   16   21 1
  33   16   17 1
  34   16   40 1
  35   17   19 am
  36   17   20 2
  37   18   21 1
  38   18   41 1
  39   18   42 1
  40   18   43 1
  41   19   24 1
  42   19   44 1
  43   21   22 1
  44   21   23 1
  45   22   45 1
  46   22   46 1
  47   22   47 1
  48   23   48 1
  49   23   49 1
  50   23   50 1
  51   24   51 1
  52   24   52 1
  53   24   53 1
  54   25   26 1
  55   25   54 1
  56   25   55 1
  57   26   27 1
  58   26   56 1
  59   26   57 1
  60   27   58 1
  61   27   59 1

#	End of record

