#	Name: ASD01140490
#	Creating user name:	WinNT
#	Creation time:	15. 06. 2019 19:01

#	Modifying user name:	WinNT
#	Modification time:	15. 06. 2019 19:01

#	Program:	/corina/corina34_cracker 3.40 0067  02.08.2006

@<TRIPOS>MOLECULE
ASD01140490
  41   43    0    0    0
SMALL
NO_CHARGES


@<TRIPOS>ATOM
   1 C1            -0.0167     1.3801     0.0096 C.ar    
   2 C2             0.0021    -0.0041     0.0020 C.ar    
   3 C3             1.2460    -0.6425    -0.0133 C.ar    
   4 N4             2.3575     0.0813    -0.0200 N.ar    
   5 N5             2.3359     1.3646    -0.0129 N.ar    
   6 C6             1.2043     2.0514     0.0016 C.ar    
   7 C7             1.3223    -2.1237    -0.0215 C.ar    
   8 C8             2.5625    -2.7597    -0.0367 C.ar    
   9 C9             2.6287    -4.1377    -0.0438 C.ar    
  10 C10            1.4648    -4.8893    -0.0358 C.ar    
  11 C11            0.2297    -4.2614    -0.0206 C.ar    
  12 C12            0.1541    -2.8839    -0.0081 C.ar    
  13 O13            1.2334     3.4079     0.0081 O.3     
  14 C14            2.5202     4.0293    -0.0008 C.3     
  15 C15            2.3523     5.5500     0.0084 C.3     
  16 N16            1.7303     5.9650     1.2682 N.am    
  17 C17            1.4835     7.2695     1.5003 C.2     
  18 C18            0.8563     7.6880     2.7707 C.ar    
  19 O19            1.7771     8.1018     0.6643 O.2     
  20 C20            0.5233     6.7343     3.7352 C.ar    
  21 C21            0.5996     9.0387     3.0135 C.ar    
  22 C22            0.0145     9.4251     4.2007 C.ar    
  23 C23           -0.3195     8.4759     5.1534 C.ar    
  24 C24           -0.0621     7.1312     4.9204 C.ar    
  25 F25           -0.3855     6.2105     5.8547 F       
  26 F26           -0.8926     8.8603     6.3148 F       
  27 F27            1.5343    -6.2385    -0.0433 F       
  28 H28           -0.9500     1.9235     0.0170 H       
  29 H29           -0.9157    -0.5733     0.0081 H       
  30 H30            3.4702    -2.1745    -0.0434 H       
  31 H31            3.5893    -4.6312    -0.0560 H       
  32 H32           -0.6750    -4.8511    -0.0148 H       
  33 H33           -0.8089    -2.3952     0.0082 H       
  34 H34            3.0791     3.7201     0.8825 H       
  35 H35            3.0625     3.7291    -0.8974 H       
  36 H36            3.3292     6.0240    -0.0879 H       
  37 H37            1.7187     5.8507    -0.8260 H       
  38 H38            1.4960     5.3009     1.9353 H       
  39 H39            0.7232     5.6885     3.5539 H       
  40 H40            0.8595     9.7801     2.2724 H       
  41 H41           -0.1838    10.4700     4.3887 H       
@<TRIPOS>BOND
   1    1    2 ar
   2    1    6 ar
   3    1   28 1
   4    2    3 ar
   5    2   29 1
   6    3    4 ar
   7    3    7 1
   8    4    5 ar
   9    5    6 ar
  10    6   13 1
  11    7    8 ar
  12    7   12 ar
  13    8    9 ar
  14    8   30 1
  15    9   10 ar
  16    9   31 1
  17   10   11 ar
  18   10   27 1
  19   11   12 ar
  20   11   32 1
  21   12   33 1
  22   13   14 1
  23   14   15 1
  24   14   34 1
  25   14   35 1
  26   15   16 1
  27   15   36 1
  28   15   37 1
  29   16   17 am
  30   16   38 1
  31   17   18 1
  32   17   19 2
  33   18   21 ar
  34   18   20 ar
  35   20   24 ar
  36   20   39 1
  37   21   22 ar
  38   21   40 1
  39   22   23 ar
  40   22   41 1
  41   23   24 ar
  42   23   26 1
  43   24   25 1

#	End of record

