#	Name: ASD02198274
#	Creating user name:	WinNT
#	Creation time:	15. 06. 2019 20:19

#	Modifying user name:	WinNT
#	Modification time:	15. 06. 2019 20:19

#	Program:	/corina/corina34_cracker 3.40 0067  02.08.2006

@<TRIPOS>MOLECULE
ASD02198274
  39   41    0    0    0
SMALL
NO_CHARGES


@<TRIPOS>ATOM
   1 C1             0.0861     1.3374    -0.9494 C.2     
   2 C2             0.0775    -0.0339    -0.7600 C.2     
   3 S3             1.7328     1.9038    -0.6826 S.3     
   4 C4             2.2462     0.3081    -0.3524 C.2     
   5 N5             1.2516    -0.5275    -0.4447 N.2     
   6 N6            -1.0619    -0.8106    -0.8905 N.pl3   
   7 C7            -1.0202     2.1346    -1.2981 C.2     
   8 O8            -2.1148     1.6212    -1.4616 O.2     
   9 C9            -0.8561     3.5919    -1.4661 C.2     
  10 N10            3.5371    -0.0466    -0.0320 N.pl3   
  11 C11            3.8883    -1.3976     0.0630 C.ar    
  12 C12            5.1334    -1.7608     0.5665 C.ar    
  13 C13            5.4761    -3.0969     0.6591 C.ar    
  14 C14            4.5826    -4.0709     0.2513 C.ar    
  15 C15            3.3448    -3.7124    -0.2493 C.ar    
  16 C16            2.9932    -2.3791    -0.3394 C.ar    
  17 F17            6.0063    -0.8093     0.9639 F       
  18 C18           -1.8287     4.4931    -1.8006 C.2     
  19 C19           -1.1431     5.7373    -1.8263 C.2     
  20 N20            0.1044     5.4765    -1.5218 N.2     
  21 O21            0.2791     4.2985    -1.3147 O.3     
  22 C22           -1.7235     7.0658    -2.1360 C.2     
  23 O23           -2.9035     7.1653    -2.4036 O.2     
  24 O24           -0.9419     8.1621    -2.1205 O.3     
  25 C25           -1.5777     9.4294    -2.4336 C.3     
  26 C26           -0.5394    10.5512    -2.3664 C.3     
  27 H27           -1.9070    -0.3964    -1.1253 H       
  28 H28           -1.0148    -1.7688    -0.7470 H       
  29 H29            4.2033     0.6401     0.1280 H       
  30 H30            6.4422    -3.3804     1.0497 H       
  31 H31            4.8527    -5.1141     0.3238 H       
  32 H32            2.6501    -4.4758    -0.5670 H       
  33 H33            2.0257    -2.1007    -0.7304 H       
  34 H34           -2.8732     4.3035    -1.9991 H       
  35 H35           -2.0008     9.3855    -3.4371 H       
  36 H36           -2.3715     9.6255    -1.7128 H       
  37 H37           -1.0167    11.5026    -2.6014 H       
  38 H38           -0.1163    10.5951    -1.3628 H       
  39 H39            0.2545    10.3551    -3.0871 H       
@<TRIPOS>BOND
   1    1    2 2
   2    1    3 1
   3    1    7 1
   4    2    6 1
   5    2    5 1
   6    3    4 1
   7    4    5 2
   8    4   10 1
   9    6   27 1
  10    6   28 1
  11    7    8 2
  12    7    9 1
  13    9   18 2
  14    9   21 1
  15   10   11 1
  16   10   29 1
  17   11   12 ar
  18   11   16 ar
  19   12   13 ar
  20   12   17 1
  21   13   14 ar
  22   13   30 1
  23   14   15 ar
  24   14   31 1
  25   15   16 ar
  26   15   32 1
  27   16   33 1
  28   18   19 1
  29   18   34 1
  30   19   20 2
  31   19   22 1
  32   20   21 1
  33   22   23 2
  34   22   24 1
  35   24   25 1
  36   25   26 1
  37   25   35 1
  38   25   36 1
  39   26   37 1
  40   26   38 1
  41   26   39 1

#	End of record

