#	Name: ASD01916264
#	Creating user name:	WinNT
#	Creation time:	15. 06. 2019 20:07

#	Modifying user name:	WinNT
#	Modification time:	15. 06. 2019 20:07

#	Program:	/corina/corina34_cracker 3.40 0067  02.08.2006

@<TRIPOS>MOLECULE
ASD01916264
  31   33    0    0    0
SMALL
NO_CHARGES


@<TRIPOS>ATOM
   1 C1             0.0976     1.3423     0.5024 C.2     
   2 N2             0.1208    -0.0009     0.5168 N.am    
   3 C3             1.2078    -0.6749     0.0128 C.2     
   4 C4             2.3250     0.1001    -0.5329 C.2     
   5 C5             2.2393     1.4443    -0.5176 C.2     
   6 N6             1.1212     2.0552     0.0024 N.am    
   7 N7             0.9870    -1.9658     0.1422 N.2     
   8 C8            -0.2096    -2.1550     0.7146 C.2     
   9 C9            -0.7669    -0.9523     0.9568 C.2     
  10 O10           -0.8725     1.9254     0.9468 O.2     
  11 C11            1.0483     3.4537     0.0107 C.ar    
  12 C12            0.4944     4.1281    -1.0698 C.ar    
  13 C13            0.4235     5.5071    -1.0584 C.ar    
  14 C14            0.9034     6.2168     0.0274 C.ar    
  15 C15            1.4554     5.5484     1.1045 C.ar    
  16 C16            1.5244     4.1688     1.1015 C.ar    
  17 C17           -0.1769     6.2397    -2.2306 C.3     
  18 F18           -1.5514     6.4006    -2.0255 F       
  19 F19            0.4264     7.4959    -2.3541 F       
  20 F20            0.0369     5.5026    -3.4003 F       
  21 C21           -0.8292    -3.4910     1.0344 C.3     
  22 Cl22          -0.3472    -3.9944     2.6973 Cl      
  23 H23            3.1960    -0.3941    -0.9372 H       
  24 H24            3.0474     2.0421    -0.9127 H       
  25 H25           -1.7296    -0.7707     1.4114 H       
  26 H26            0.1198     3.5746    -1.9182 H       
  27 H27            0.8472     7.2953     0.0338 H       
  28 H28            1.8293     6.1053     1.9509 H       
  29 H29            1.9516     3.6470     1.9451 H       
  30 H30           -1.9148    -3.4104     0.9795 H       
  31 H31           -0.4831    -4.2335     0.3154 H       
@<TRIPOS>BOND
   1    1    2 am
   2    1    6 am
   3    1   10 2
   4    2    3 1
   5    2    9 1
   6    3    4 1
   7    3    7 2
   8    4    5 2
   9    4   23 1
  10    5    6 1
  11    5   24 1
  12    6   11 1
  13    7    8 1
  14    8    9 2
  15    8   21 1
  16    9   25 1
  17   11   12 ar
  18   11   16 ar
  19   12   13 ar
  20   12   26 1
  21   13   14 ar
  22   13   17 1
  23   14   15 ar
  24   14   27 1
  25   15   16 ar
  26   15   28 1
  27   16   29 1
  28   17   18 1
  29   17   19 1
  30   17   20 1
  31   21   22 1
  32   21   30 1
  33   21   31 1

#	End of record

