#	Name: ASD00180022
#	Creating user name:	WinNT
#	Creation time:	15. 06. 2019 18:33

#	Modifying user name:	WinNT
#	Modification time:	15. 06. 2019 18:33

#	Program:	/corina/corina34_cracker 3.40 0067  02.08.2006

@<TRIPOS>MOLECULE
ASD00180022
  43   43    0    0    0
SMALL
NO_CHARGES


@<TRIPOS>ATOM
   1 N1             1.6639     1.7800     0.0495 N.ar    
   2 C2             1.5582     0.4688     0.0769 C.ar    
   3 C3             2.6613    -0.3330    -0.2373 C.ar    
   4 N4             3.8192     0.2262    -0.5644 N.ar    
   5 C5             3.9311     1.5485    -0.5935 C.ar    
   6 C6             2.8228     2.3496    -0.2778 C.ar    
   7 C7             2.9409     3.8215    -0.3089 C.2     
   8 N8             1.8563     4.5855    -0.1134 N.2     
   9 O9             4.0241     4.3416    -0.5123 O.2     
  10 C10            1.5409     5.5242    -0.9919 C.2     
  11 N11            5.1372     2.1355    -0.9337 N.pl3   
  12 N12            2.2339     5.6233    -2.1626 N.pl3   
  13 N13            0.5229     6.3925    -0.7263 N.pl3   
  14 Cl14           0.0460    -0.2687     0.5046 Cl      
  15 N15            2.5443    -1.7126    -0.2064 N.pl3   
  16 C16            3.6982    -2.5532    -0.5351 C.3     
  17 C17            3.3032    -4.0272    -0.4254 C.3     
  18 N18            4.4603    -4.8701    -0.7550 N.3     
  19 C19            4.1939    -6.2787    -0.4342 C.3     
  20 C20            4.8405    -4.7142    -2.1653 C.3     
  21 C21            6.2575    -5.2523    -2.3741 C.3     
  22 C22            4.2778    -6.4816     1.0800 C.3     
  23 H23            5.9415     1.5959    -0.9864 H       
  24 H24            5.1783     3.0867    -1.1195 H       
  25 H25            2.8947     4.9518    -2.3934 H       
  26 H26            2.0658     6.3653    -2.7644 H       
  27 H27            0.0302     6.3220     0.1063 H       
  28 H28            0.2918     7.0803    -1.3699 H       
  29 H29            1.6983    -2.1223     0.0329 H       
  30 H30            4.0254    -2.3394    -1.5526 H       
  31 H31            4.5111    -2.3422     0.1598 H       
  32 H32            2.9760    -4.2410     0.5921 H       
  33 H33            2.4903    -4.2382    -1.1203 H       
  34 H34            3.1968    -6.5483    -0.7823 H       
  35 H35            4.9337    -6.9097    -0.9268 H       
  36 H36            4.1444    -5.2706    -2.7930 H       
  37 H37            4.8093    -3.6586    -2.4355 H       
  38 H38            6.9559    -4.6850    -1.7588 H       
  39 H39            6.2926    -6.3036    -2.0882 H       
  40 H40            6.5334    -5.1517    -3.4237 H       
  41 H41            5.2406    -6.1211     1.4421 H       
  42 H42            3.4757    -5.9260     1.5659 H       
  43 H43            4.1767    -7.5421     1.3106 H       
@<TRIPOS>BOND
   1    1    2 ar
   2    1    6 ar
   3    2    3 ar
   4    2   14 1
   5    3    4 ar
   6    3   15 1
   7    4    5 ar
   8    5    6 ar
   9    5   11 1
  10    6    7 1
  11    7    8 1
  12    7    9 2
  13    8   10 2
  14   10   12 1
  15   10   13 1
  16   11   23 1
  17   11   24 1
  18   12   25 1
  19   12   26 1
  20   13   27 1
  21   13   28 1
  22   15   16 1
  23   15   29 1
  24   16   17 1
  25   16   30 1
  26   16   31 1
  27   17   18 1
  28   17   32 1
  29   17   33 1
  30   18   19 1
  31   18   20 1
  32   19   22 1
  33   19   34 1
  34   19   35 1
  35   20   21 1
  36   20   36 1
  37   20   37 1
  38   21   38 1
  39   21   39 1
  40   21   40 1
  41   22   41 1
  42   22   42 1
  43   22   43 1

#	End of record

