#	Name: ASD01815663
#	Creating user name:	WinNT
#	Creation time:	15. 06. 2019 19:33

#	Modifying user name:	WinNT
#	Modification time:	15. 06. 2019 19:33

#	Program:	/corina/corina34_cracker 3.40 0067  02.08.2006

@<TRIPOS>MOLECULE
ASD01815663
  61   63    0    0    0
SMALL
NO_CHARGES


@<TRIPOS>ATOM
   1 C1            -0.0187     1.5258     0.0104 C.3     
   2 C2             0.0021    -0.0041     0.0020 C.3     
   3 C3             1.3951     2.0474    -0.0003 C.2     
   4 O4             2.3275     1.2719    -0.0133 O.2     
   5 N5             1.6234     3.3757     0.0047 N.am    
   6 C6             2.9978     3.8828    -0.0057 C.3     
   7 C7             3.0305     5.2829     0.6112 C.3     
   8 N8             4.4046     5.8001     0.5818 N.3     
   9 C9             4.8967     5.9221    -0.7963 C.3     
  10 C10            4.9197     4.5410    -1.4553 C.3     
  11 C11            3.5055     3.9540    -1.4485 C.3     
  12 C12            4.4992     7.0836     1.2901 C.3     
  13 C13            5.9624     7.5284     1.3462 C.3     
  14 C14            6.0613     8.8495     2.1154 C.3     
  15 N15            5.1569     9.8270     1.4946 N.am    
  16 C16            3.7450     9.4649     1.3095 C.3     
  17 C17            3.6721     8.1369     0.5493 C.3     
  18 C18            5.6136    11.0329     1.1028 C.2     
  19 O19            6.7834    11.3205     1.2618 O.2     
  20 O20            4.7737    11.9190     0.5353 O.3     
  21 C21            5.3346    13.1980     0.1381 C.3     
  22 C22            4.2377    14.0653    -0.4827 C.3     
  23 C23           -1.4333    -0.5336     0.0129 C.3     
  24 C24           -2.1733    -0.0268    -1.2266 C.3     
  25 C25           -2.1940     1.5030    -1.2182 C.3     
  26 C26           -0.7587     2.0326    -1.2291 C.3     
  27 H27           -0.5289     1.8773     0.9072 H       
  28 H28            0.5123    -0.3556    -0.8948 H       
  29 H29            0.5293    -0.3651     0.8851 H       
  30 H30            0.8777     3.9959     0.0151 H       
  31 H31            3.6364     3.2152     0.5728 H       
  32 H32            2.3804     5.9463     0.0408 H       
  33 H33            2.6831     5.2333     1.6431 H       
  34 H34            4.2379     6.5825    -1.3601 H       
  35 H35            5.9047     6.3367    -0.7867 H       
  36 H36            5.2702     4.6340    -2.4832 H       
  37 H37            5.5891     3.8840    -0.9000 H       
  38 H38            3.5248     2.9523    -1.8778 H       
  39 H39            2.8441     4.5905    -2.0364 H       
  40 H40            4.1156     6.9681     2.3038 H       
  41 H41            6.5549     6.7669     1.8533 H       
  42 H42            6.3392     7.6682     0.3330 H       
  43 H43            5.7703     8.6904     3.1537 H       
  44 H44            7.0852     9.2210     2.0734 H       
  45 H45            3.2652     9.3560     2.2821 H       
  46 H46            3.2406    10.2425     0.7359 H       
  47 H47            4.0705     8.2710    -0.4564 H       
  48 H48            2.6345     7.8086     0.4893 H       
  49 H49            5.7449    13.7023     1.0130 H       
  50 H50            6.1269    13.0360    -0.5927 H       
  51 H51            3.8274    13.5610    -1.3577 H       
  52 H52            3.4454    14.2273     0.2481 H       
  53 H53            4.6588    15.0254    -0.7810 H       
  54 H54           -1.4185    -1.6235     0.0069 H       
  55 H55           -1.9435    -0.1821     0.9097 H       
  56 H56           -1.6631    -0.3783    -2.1234 H       
  57 H57           -3.1959    -0.4041    -1.2189 H       
  58 H58           -2.7212     1.8641    -2.1013 H       
  59 H59           -2.7042     1.8545    -0.3214 H       
  60 H60           -0.7734     3.1225    -1.2231 H       
  61 H61           -0.2485     1.6811    -2.1259 H       
@<TRIPOS>BOND
   1    1    2 1
   2    1    3 1
   3    1   26 1
   4    1   27 1
   5    2   23 1
   6    2   28 1
   7    2   29 1
   8    3    4 2
   9    3    5 am
  10    5    6 1
  11    5   30 1
  12    6    7 1
  13    6   11 1
  14    6   31 1
  15    7    8 1
  16    7   32 1
  17    7   33 1
  18    8    9 1
  19    8   12 1
  20    9   10 1
  21    9   34 1
  22    9   35 1
  23   10   11 1
  24   10   36 1
  25   10   37 1
  26   11   38 1
  27   11   39 1
  28   12   13 1
  29   12   17 1
  30   12   40 1
  31   13   14 1
  32   13   41 1
  33   13   42 1
  34   14   15 1
  35   14   43 1
  36   14   44 1
  37   15   16 1
  38   15   18 am
  39   16   17 1
  40   16   45 1
  41   16   46 1
  42   17   47 1
  43   17   48 1
  44   18   19 2
  45   18   20 1
  46   20   21 1
  47   21   22 1
  48   21   49 1
  49   21   50 1
  50   22   51 1
  51   22   52 1
  52   22   53 1
  53   23   24 1
  54   23   54 1
  55   23   55 1
  56   24   25 1
  57   24   56 1
  58   24   57 1
  59   25   26 1
  60   25   58 1
  61   25   59 1
  62   26   60 1
  63   26   61 1

#	End of record

