#	Name: ASD01908086
#	Creating user name:	WinNT
#	Creation time:	15. 06. 2019 19:54

#	Modifying user name:	WinNT
#	Modification time:	15. 06. 2019 19:54

#	Program:	/corina/corina34_cracker 3.40 0067  02.08.2006

@<TRIPOS>MOLECULE
ASD01908086
  32   33    0    0    0
SMALL
NO_CHARGES


@<TRIPOS>ATOM
   1 N1            -0.0169     1.3951     0.0097 N.pl3   
   2 N2             0.0021    -0.0041     0.0020 N.2     
   3 C3             1.2415    -0.4101    -0.0120 C.2     
   4 C4             2.0753     0.7311    -0.0138 C.2     
   5 C5             1.2499     1.8386    -0.0000 C.2     
   6 C6             3.5481     0.7382    -0.0271 C.2     
   7 O7             4.1507     1.7935    -0.0268 O.2     
   8 O8             4.2274    -0.4255    -0.0396 O.3     
   9 C9             1.6906     3.2797     0.0035 C.3     
  10 F10            1.8396     3.7185     1.3235 F       
  11 F11            2.9130     3.3951    -0.6671 F       
  12 F12            0.7284     4.0632    -0.6426 F       
  13 C13           -1.2174     2.2346     0.0202 C.3     
  14 C14           -1.6218     2.5153     1.4445 C.ar    
  15 C15           -1.1203     3.6256     2.0983 C.ar    
  16 C16           -1.4894     3.8851     3.4040 C.ar    
  17 C17           -2.3640     3.0304     4.0593 C.ar    
  18 C18           -2.8657     1.9170     3.4011 C.ar    
  19 C19           -2.4979     1.6650     2.0935 C.ar    
  20 O20           -2.7283     3.2833     5.3439 O.3     
  21 C21           -3.6320     2.3607     5.9555 C.3     
  22 H22            1.5726    -1.4381    -0.0204 H       
  23 H23            5.1928    -0.3703    -0.0480 H       
  24 H24           -1.0078     3.1748    -0.4900 H       
  25 H25           -2.0279     1.7161    -0.4921 H       
  26 H26           -0.4393     4.2904     1.5879 H       
  27 H27           -1.0972     4.7523     3.9143 H       
  28 H28           -3.5467     1.2502     3.9091 H       
  29 H29           -2.8920     0.8010     1.5791 H       
  30 H30           -3.1837     1.3672     5.9683 H       
  31 H31           -3.8398     2.6788     6.9772 H       
  32 H32           -4.5619     2.3323     5.3876 H       
@<TRIPOS>BOND
   1    1    2 1
   2    1    5 1
   3    1   13 1
   4    2    3 2
   5    3    4 1
   6    3   22 1
   7    4    5 2
   8    4    6 1
   9    5    9 1
  10    6    7 2
  11    6    8 1
  12    8   23 1
  13    9   10 1
  14    9   11 1
  15    9   12 1
  16   13   14 1
  17   13   24 1
  18   13   25 1
  19   14   15 ar
  20   14   19 ar
  21   15   16 ar
  22   15   26 1
  23   16   17 ar
  24   16   27 1
  25   17   18 ar
  26   17   20 1
  27   18   19 ar
  28   18   28 1
  29   19   29 1
  30   20   21 1
  31   21   30 1
  32   21   31 1
  33   21   32 1

#	End of record

