#	Name: ASD04880167
#	Creating user name:	WinNT
#	Creation time:	15. 06. 2019 20:52

#	Modifying user name:	WinNT
#	Modification time:	15. 06. 2019 20:52

#	Program:	/corina/corina34_cracker 3.40 0067  02.08.2006

@<TRIPOS>MOLECULE
ASD04880167
  67   70    0    0    0
SMALL
NO_CHARGES


@<TRIPOS>ATOM
   1 C1            -0.1477     1.4421    -0.0773 C.3     
   2 O2             0.6561     0.2993     0.2225 O.3     
   3 C3             1.2731    -0.3115    -0.8217 C.ar    
   4 C4             1.1114     0.1845    -2.1079 C.ar    
   5 C5             1.7351    -0.4321    -3.1711 C.ar    
   6 C6             2.5326    -1.5584    -2.9556 C.ar    
   7 C7             2.6959    -2.0578    -1.6602 C.ar    
   8 C8             2.0724    -1.4321    -0.5987 C.ar    
   9 O9             2.2337    -1.9121     0.6636 O.3     
  10 C10            3.0661    -3.0631     0.8186 C.3     
  11 C11            3.2008    -2.2201    -4.0929 C.2     
  12 O12            3.8947    -3.2005    -3.9038 O.2     
  13 N13            3.0419    -1.7376    -5.3413 N.am    
  14 C14            3.7516    -2.3035    -6.4052 C.ar    
  15 C15            3.9991    -3.6700    -6.4282 C.ar    
  16 C16            4.6998    -4.2257    -7.4806 C.ar    
  17 C17            5.1550    -3.4232    -8.5107 C.ar    
  18 C18            4.9107    -2.0622    -8.4906 C.ar    
  19 C19            4.2056    -1.5010    -7.4440 C.ar    
  20 C20            5.9193    -4.0330    -9.6574 C.3     
  21 C21            7.1857    -4.7068    -9.1252 C.3     
  22 C22            5.0436    -5.0739   -10.3577 C.3     
  23 C23            6.3047    -2.9374   -10.6534 C.3     
  24 N24            7.0477    -3.5302   -11.7682 N.am    
  25 C25            7.4920    -2.7494   -12.7729 C.2     
  26 O26            7.2767    -1.5560   -12.7541 O.2     
  27 C27            8.2563    -3.3593   -13.9196 C.3     
  28 N28            8.6253    -2.3102   -14.8733 N.pl3   
  29 C29            7.9076    -1.9739   -15.9885 C.2     
  30 C30            8.5205    -0.9751   -16.6433 C.2     
  31 C31            9.7298    -0.6444   -15.8857 C.ar    
  32 C32           10.7563     0.2867   -16.0560 C.ar    
  33 C33           11.7821     0.3458   -15.1373 C.ar    
  34 F34           12.7772     1.2453   -15.2978 F       
  35 C35           11.7977    -0.5152   -14.0463 C.ar    
  36 C36           10.7917    -1.4389   -13.8662 C.ar    
  37 C37            9.7440    -1.5110   -14.7777 C.ar    
  38 H38            0.4711     2.2099    -0.5416 H       
  39 H39           -0.9458     1.1555    -0.7621 H       
  40 H40           -0.5816     1.8327     0.8432 H       
  41 H41            0.4951     1.0553    -2.2760 H       
  42 H42            1.6070    -0.0445    -4.1710 H       
  43 H43            3.3117    -2.9284    -1.4895 H       
  44 H44            4.0705    -2.8360     0.4610 H       
  45 H45            3.1095    -3.3410     1.8716 H       
  46 H46            2.6534    -3.8904     0.2412 H       
  47 H47            2.4353    -0.9979    -5.5019 H       
  48 H48            3.6442    -4.2972    -5.6239 H       
  49 H49            4.8929    -5.2881    -7.4989 H       
  50 H50            5.2682    -1.4381    -9.2963 H       
  51 H51            4.0110    -0.4388    -7.4313 H       
  52 H52            6.9112    -5.4873    -8.4156 H       
  53 H53            7.7385    -5.1479    -9.9546 H       
  54 H54            7.8096    -3.9652    -8.6262 H       
  55 H55            4.1414    -4.5939   -10.7369 H       
  56 H56            5.5965    -5.5150   -11.1871 H       
  57 H57            4.7691    -5.8544    -9.6481 H       
  58 H58            5.4025    -2.4574   -11.0326 H       
  59 H59            6.9285    -2.1958   -10.1545 H       
  60 H60            7.2199    -4.4847   -11.7832 H       
  61 H61            9.1585    -3.8393   -13.5405 H       
  62 H62            7.6325    -4.1009   -14.4185 H       
  63 H63            6.9848    -2.4429   -16.2966 H       
  64 H64            8.1857    -0.5049   -17.5561 H       
  65 H65           10.7467     0.9566   -16.9031 H       
  66 H66           12.6066    -0.4598   -13.3329 H       
  67 H67           10.8143    -2.1035   -13.0152 H       
@<TRIPOS>BOND
   1    1    2 1
   2    1   38 1
   3    1   39 1
   4    1   40 1
   5    2    3 1
   6    3    8 ar
   7    3    4 ar
   8    4    5 ar
   9    4   41 1
  10    5    6 ar
  11    5   42 1
  12    6    7 ar
  13    6   11 1
  14    7    8 ar
  15    7   43 1
  16    8    9 1
  17    9   10 1
  18   10   44 1
  19   10   45 1
  20   10   46 1
  21   11   12 2
  22   11   13 am
  23   13   14 1
  24   13   47 1
  25   14   19 ar
  26   14   15 ar
  27   15   16 ar
  28   15   48 1
  29   16   17 ar
  30   16   49 1
  31   17   18 ar
  32   17   20 1
  33   18   19 ar
  34   18   50 1
  35   19   51 1
  36   20   21 1
  37   20   22 1
  38   20   23 1
  39   21   52 1
  40   21   53 1
  41   21   54 1
  42   22   55 1
  43   22   56 1
  44   22   57 1
  45   23   24 1
  46   23   58 1
  47   23   59 1
  48   24   25 am
  49   24   60 1
  50   25   26 2
  51   25   27 1
  52   27   28 1
  53   27   61 1
  54   27   62 1
  55   28   37 1
  56   28   29 1
  57   29   30 2
  58   29   63 1
  59   30   31 1
  60   30   64 1
  61   31   37 ar
  62   31   32 ar
  63   32   33 ar
  64   32   65 1
  65   33   34 1
  66   33   35 ar
  67   35   36 ar
  68   35   66 1
  69   36   37 ar
  70   36   67 1

#	End of record

