#	Name: ASD01200469
#	Creating user name:	WinNT
#	Creation time:	15. 06. 2019 19:09

#	Modifying user name:	WinNT
#	Modification time:	15. 06. 2019 19:09

#	Program:	/corina/corina34_cracker 3.40 0067  02.08.2006

@<TRIPOS>MOLECULE
ASD01200469
  22   23    0    0    0
SMALL
NO_CHARGES


@<TRIPOS>ATOM
   1 N1             2.2306     1.3385     0.5650 N.ar    
   2 C2             2.2417     0.0207     0.5642 C.ar    
   3 C3             1.2057    -0.6961    -0.0211 C.ar    
   4 C4             0.1515    -0.0015    -0.6089 C.ar    
   5 C5             0.1812     1.3834    -0.5848 C.ar    
   6 C6             1.2472     2.0255     0.0169 C.ar    
   7 N7             1.2213    -2.0946    -0.0204 N.am    
   8 C8             0.0669    -2.7814     0.0891 C.2     
   9 O9            -0.9779    -2.1883     0.2855 O.2     
  10 C10            0.0693    -4.2408    -0.0281 C.2     
  11 C11           -1.0327    -5.0463     0.0644 C.2     
  12 C12           -0.7428    -6.3826    -0.0899 C.2     
  13 C13            0.5482    -6.6624    -0.3011 C.2     
  14 S14            1.4877    -5.2385    -0.3180 S.3     
  15 Cl15          -2.6356    -4.4433     0.3485 Cl      
  16 H16            3.0647    -0.5073     1.0228 H       
  17 H17           -0.6687    -0.5294    -1.0725 H       
  18 H18           -0.6192     1.9547    -1.0313 H       
  19 H19            1.2751     3.1050     0.0388 H       
  20 H20            2.0631    -2.5703    -0.0987 H       
  21 H21           -1.5020    -7.1493    -0.0436 H       
  22 H22            0.9432    -7.6577    -0.4420 H       
@<TRIPOS>BOND
   1    1    2 ar
   2    1    6 ar
   3    2    3 ar
   4    2   16 1
   5    3    4 ar
   6    3    7 1
   7    4    5 ar
   8    4   17 1
   9    5    6 ar
  10    5   18 1
  11    6   19 1
  12    7    8 am
  13    7   20 1
  14    8    9 2
  15    8   10 1
  16   10   11 2
  17   10   14 1
  18   11   12 1
  19   11   15 1
  20   12   13 2
  21   12   21 1
  22   13   14 1
  23   13   22 1

#	End of record

