#	Name: ASD01914635
#	Creating user name:	WinNT
#	Creation time:	15. 06. 2019 20:03

#	Modifying user name:	WinNT
#	Modification time:	15. 06. 2019 20:03

#	Program:	/corina/corina34_cracker 3.40 0067  02.08.2006

@<TRIPOS>MOLECULE
ASD01914635
  35   38    0    0    0
SMALL
NO_CHARGES


@<TRIPOS>ATOM
   1 N1            -0.0158     1.3160     0.0093 N.ar    
   2 C2             6.1470    -3.2168    -0.0743 C.2     
   3 N3             7.5107    -3.4273    -0.0911 N.pl3   
   4 C4             5.9567    -1.8822    -0.0654 C.2     
   5 N5             7.1856    -1.2949    -0.0748 N.2     
   6 C6             8.1072    -2.2239    -0.0894 C.2     
   7 C7             4.6944    -1.2063    -0.0497 C.1     
   8 C8             3.6595    -0.6521    -0.0368 C.1     
   9 C9             2.3972     0.0239    -0.0212 C.ar    
  10 C10            2.3293     1.4244    -0.0130 C.ar    
  11 C11            1.0925     2.0327     0.0025 C.ar    
  12 C12            1.1936    -0.6961    -0.0131 C.ar    
  13 C13            8.0133    -4.7341    -0.1074 C.ar    
  14 C14            7.1109    -5.7645    -0.3938 C.ar    
  15 O15            5.8102    -5.4964    -0.6748 O.3     
  16 C16            5.1745    -4.3657    -0.0635 C.3     
  17 C17            9.3402    -5.0132     0.1491 C.ar    
  18 C18            9.7822    -6.3248     0.1345 C.ar    
  19 C19            8.8940    -7.3492    -0.1356 C.ar    
  20 C20            7.5654    -7.0744    -0.3984 C.ar    
  21 C21            0.0021    -0.0041     0.0020 C.ar    
  22 C22           -1.2988    -0.7648     0.0109 C.3     
  23 H23            9.1733    -2.0511    -0.0984 H       
  24 H24            3.2320     2.0172    -0.0191 H       
  25 H25            1.0294     3.1108     0.0089 H       
  26 H26            1.2005    -1.7760    -0.0193 H       
  27 H27            4.8985    -4.6095     0.9623 H       
  28 H28            4.2835    -4.0945    -0.6298 H       
  29 H29           10.0316    -4.2108     0.3601 H       
  30 H30           10.8200    -6.5476     0.3335 H       
  31 H31            9.2410    -8.3719    -0.1413 H       
  32 H32            6.8794    -7.8818    -0.6081 H       
  33 H33           -1.6227    -0.9427    -1.0146 H       
  34 H34           -1.1582    -1.7192     0.5182 H       
  35 H35           -2.0565    -0.1827     0.5354 H       
@<TRIPOS>BOND
   1    1   21 ar
   2    1   11 ar
   3    2    3 1
   4    2    4 2
   5    2   16 1
   6    3   13 1
   7    3    6 1
   8    4    5 1
   9    4    7 1
  10    5    6 2
  11    6   23 1
  12    7    8 3
  13    8    9 1
  14    9   10 ar
  15    9   12 ar
  16   10   11 ar
  17   10   24 1
  18   11   25 1
  19   12   21 ar
  20   12   26 1
  21   13   14 ar
  22   13   17 ar
  23   14   15 1
  24   14   20 ar
  25   15   16 1
  26   16   27 1
  27   16   28 1
  28   17   18 ar
  29   17   29 1
  30   18   19 ar
  31   18   30 1
  32   19   20 ar
  33   19   31 1
  34   20   32 1
  35   21   22 1
  36   22   33 1
  37   22   34 1
  38   22   35 1

#	End of record

