#	Name: ASD07930093
#	Creating user name:	WinNT
#	Creation time:	15. 06. 2019 21:11

#	Modifying user name:	WinNT
#	Modification time:	15. 06. 2019 21:11

#	Program:	/corina/corina34_cracker 3.40 0067  02.08.2006

@<TRIPOS>MOLECULE
ASD07930093
  25   26    0    0    0
SMALL
NO_CHARGES


@<TRIPOS>ATOM
   1 O1            -0.0143     1.2047     0.0087 O.3     
   2 N2             0.0021    -0.0041     0.0020 N.2     
   3 C3             1.2171    -0.4744    -0.0121 C.2     
   4 C4             2.0803     0.6398    -0.0144 C.2     
   5 C5             1.2309     1.7134    -0.0005 C.2     
   6 C6             1.6207    -1.9263    -0.0230 C.3     
   7 F7             0.4786    -2.7270    -0.1312 F       
   8 F8             2.4644    -2.1677    -1.1126 F       
   9 F9             2.2938    -2.2322     1.1647 F       
  10 C10            1.6060     3.1421     0.0032 C.ar    
  11 C11            1.0229     4.0256    -0.9143 C.ar    
  12 C12            1.3816     5.3637    -0.9027 C.ar    
  13 C13            2.3115     5.8238     0.0106 C.ar    
  14 C14            2.8899     4.9541     0.9187 C.ar    
  15 C15            2.5389     3.6199     0.9243 C.ar    
  16 O16            0.1102     3.5723    -1.8117 O.3     
  17 C17           -0.4419     4.5310    -2.7161 C.3     
  18 H18            3.1603     0.6453    -0.0243 H       
  19 H19            0.9344     6.0481    -1.6084 H       
  20 H20            2.5885     6.8677     0.0154 H       
  21 H21            3.6156     5.3222     1.6287 H       
  22 H22            2.9889     2.9454     1.6376 H       
  23 H23           -1.1553     4.0384    -3.3769 H       
  24 H24           -0.9497     5.3129    -2.1515 H       
  25 H25            0.3581     4.9730    -3.3100 H       
@<TRIPOS>BOND
   1    1    2 1
   2    1    5 1
   3    2    3 2
   4    3    4 1
   5    3    6 1
   6    4    5 2
   7    4   18 1
   8    5   10 1
   9    6    7 1
  10    6    8 1
  11    6    9 1
  12   10   11 ar
  13   10   15 ar
  14   11   12 ar
  15   11   16 1
  16   12   13 ar
  17   12   19 1
  18   13   14 ar
  19   13   20 1
  20   14   15 ar
  21   14   21 1
  22   15   22 1
  23   16   17 1
  24   17   23 1
  25   17   24 1
  26   17   25 1

#	End of record

