#	Name: ASD01148532
#	Creating user name:	WinNT
#	Creation time:	15. 06. 2019 19:02

#	Modifying user name:	WinNT
#	Modification time:	15. 06. 2019 19:02

#	Program:	/corina/corina34_cracker 3.40 0067  02.08.2006

@<TRIPOS>MOLECULE
ASD01148532
  52   55    0    0    0
SMALL
NO_CHARGES


@<TRIPOS>ATOM
   1 C1            -0.0180     1.4349     0.0450 C.ar    
   2 C2            -0.0166     0.0528     0.0405 C.ar    
   3 C3             1.1812    -0.6372     0.0176 C.ar    
   4 C4             2.3773     0.0551    -0.0013 C.ar    
   5 C5             2.3759     1.4377     0.0023 C.ar    
   6 C6             1.1785     2.1275     0.0267 C.ar    
   7 C7             3.6801     2.1925    -0.0172 C.3     
   8 O8             4.6903     1.4587    -0.7385 O.3     
   9 C9             3.5611     3.4817    -0.8647 C.3     
  10 C10            4.0481     3.0268    -2.2273 C.2     
  11 N11            4.6607     1.8982    -2.0821 N.2     
  12 C12            3.8552     3.7470    -3.4976 C.ar    
  13 C13            4.3787     3.1928    -4.7437 C.ar    
  14 C14            3.1698     4.9539    -3.5191 C.ar    
  15 C15            2.9732     5.6511    -4.6977 C.ar    
  16 C16            3.4534     5.1739    -5.9100 C.ar    
  17 C17            4.1783     3.9059    -5.9493 C.ar    
  18 C18            3.2288     5.9383    -7.1492 C.2     
  19 O19            3.7406     5.5733    -8.1898 O.2     
  20 N20            2.4559     7.0423    -7.1293 N.am    
  21 C21            4.6800     3.3862    -7.1491 C.ar    
  22 C22            5.0713     1.9755    -4.7699 C.ar    
  23 C23            4.1459     2.5121     1.4047 C.3     
  24 F24            4.3106     1.3212     2.1201 F       
  25 F25            5.3644     3.1975     1.3532 F       
  26 F26            3.1887     3.3097     2.0408 F       
  27 C27            2.2504     7.7416    -8.2630 C.2     
  28 O28            1.4786     8.8441    -8.2430 O.3     
  29 C29            1.3011     9.5474    -9.5009 C.3     
  30 O30            2.7618     7.3769    -9.3027 O.2     
  31 C31            5.5426     1.4944    -5.9552 C.ar    
  32 C32            5.3504     2.1990    -7.1405 C.ar    
  33 C33            1.1827    -2.1442     0.0136 C.3     
  34 F34           -0.1356    -2.6119     0.0357 F       
  35 F35            1.8224    -2.6069    -1.1414 F       
  36 F36            1.8627    -2.6128     1.1428 F       
  37 H37           -0.9538     1.9739     0.0584 H       
  38 H38           -0.9512    -0.4882     0.0552 H       
  39 H39            3.3130    -0.4839    -0.0185 H       
  40 H40            1.1774     3.2075     0.0299 H       
  41 H41            2.5251     3.8167    -0.9160 H       
  42 H42            4.2035     4.2671    -0.4665 H       
  43 H43            2.7812     5.3573    -2.5957 H       
  44 H44            2.4342     6.5867    -4.6745 H       
  45 H45            2.0476     7.3335    -6.2990 H       
  46 H46            4.5364     3.9224    -8.0755 H       
  47 H47            5.2312     1.4217    -3.8566 H       
  48 H48            2.2713     9.8758    -9.8736 H       
  49 H49            0.8394     8.8798   -10.2284 H       
  50 H50            0.6593    10.4145    -9.3450 H       
  51 H51            6.0768     0.5560    -5.9742 H       
  52 H52            5.7368     1.7991    -8.0663 H       
@<TRIPOS>BOND
   1    1    2 ar
   2    1    6 ar
   3    1   37 1
   4    2    3 ar
   5    2   38 1
   6    3    4 ar
   7    3   33 1
   8    4    5 ar
   9    4   39 1
  10    5    6 ar
  11    5    7 1
  12    6   40 1
  13    7    8 1
  14    7    9 1
  15    7   23 1
  16    8   11 1
  17    9   10 1
  18    9   41 1
  19    9   42 1
  20   10   11 2
  21   10   12 1
  22   12   13 ar
  23   12   14 ar
  24   13   22 ar
  25   13   17 ar
  26   14   15 ar
  27   14   43 1
  28   15   16 ar
  29   15   44 1
  30   16   17 ar
  31   16   18 1
  32   17   21 ar
  33   18   19 2
  34   18   20 am
  35   20   27 am
  36   20   45 1
  37   21   32 ar
  38   21   46 1
  39   22   31 ar
  40   22   47 1
  41   23   24 1
  42   23   25 1
  43   23   26 1
  44   27   28 1
  45   27   30 2
  46   28   29 1
  47   29   48 1
  48   29   49 1
  49   29   50 1
  50   31   32 ar
  51   31   51 1
  52   32   52 1
  53   33   34 1
  54   33   35 1
  55   33   36 1

#	End of record

