#	Name: ASD01813324
#	Creating user name:	WinNT
#	Creation time:	15. 06. 2019 19:30

#	Modifying user name:	WinNT
#	Modification time:	15. 06. 2019 19:30

#	Program:	/corina/corina34_cracker 3.40 0067  02.08.2006

@<TRIPOS>MOLECULE
ASD01813324
  53   57    0    0    0
SMALL
NO_CHARGES


@<TRIPOS>ATOM
   1 C1             0.0362     1.4675    -0.0705 C.2     
   2 C2             0.0458     0.0662    -0.0557 C.2     
   3 C3             1.2378    -0.5972    -0.0655 C.2     
   4 C4             2.4359     0.1359    -0.0902 C.2     
   5 N5             2.3970     1.5037    -0.1038 N.am    
   6 C6             1.1998     2.1559    -0.0943 C.2     
   7 C7             3.6623    -0.5435    -0.1001 C.2     
   8 C8             4.8319     0.1591    -0.1237 C.2     
   9 C9             4.7881     1.5656    -0.1382 C.2     
  10 C10            3.5393     2.2197    -0.1273 C.2     
  11 O11            3.4920     3.4382    -0.1401 O.2     
  12 C12            6.0291     2.3430    -0.1631 C.2     
  13 O13            5.9803     3.6910    -0.1769 O.3     
  14 O14            7.1037     1.7732    -0.1713 O.2     
  15 C15            3.6888    -2.0502    -0.0843 C.3     
  16 C16            3.8032    -2.5734    -1.5175 C.3     
  17 N17            3.8291    -4.0420    -1.5021 N.3     
  18 C18            3.6999    -4.5842    -2.8584 C.3     
  19 C19            3.8278    -6.0849    -2.8409 C.ar    
  20 C20            4.3765    -6.7557    -1.7693 C.ar    
  21 C21            4.8741    -6.0246    -0.5488 C.3     
  22 C22            5.0603    -4.5412    -0.8691 C.3     
  23 C23            3.3772    -6.7988    -3.9418 C.ar    
  24 C24            3.4773    -8.1750    -3.9698 C.ar    
  25 C25            4.0300    -8.8472    -2.8955 C.ar    
  26 C26            4.4784    -8.1385    -1.7991 C.ar    
  27 C27            2.3324    -4.2005    -3.4274 C.3     
  28 C28            2.0526    -4.5503    -4.8903 C.3     
  29 C29            1.3664    -5.3360    -3.7711 C.3     
  30 H30           -0.9038     1.9993    -0.0675 H       
  31 H31           -0.8832    -0.4842    -0.0364 H       
  32 H32            1.2602    -1.6769    -0.0539 H       
  33 H33            1.1805     3.2357    -0.1052 H       
  34 H34            5.7800    -0.3582    -0.1307 H       
  35 H35            6.8254     4.1608    -0.1932 H       
  36 H36            4.5451    -2.3924     0.4969 H       
  37 H37            2.7702    -2.4250     0.3671 H       
  38 H38            2.9470    -2.2311    -2.0987 H       
  39 H39            4.7219    -2.1985    -1.9688 H       
  40 H40            4.4825    -4.1637    -3.4899 H       
  41 H41            4.1494    -6.1325     0.2582 H       
  42 H42            5.8278    -6.4497    -0.2360 H       
  43 H43            5.9000    -4.4167    -1.5528 H       
  44 H44            5.2488    -3.9887     0.0514 H       
  45 H45            2.9452    -6.2747    -4.7816 H       
  46 H46            3.1243    -8.7258    -4.8291 H       
  47 H47            4.1104    -9.9241    -2.9138 H       
  48 H48            4.9103    -8.6635    -0.9600 H       
  49 H49            1.9050    -3.2754    -3.0404 H       
  50 H50            1.4408    -3.8556    -5.4657 H       
  51 H51            2.8427    -5.0538    -5.4474 H       
  52 H52            1.7051    -6.3565    -3.5919 H       
  53 H53            0.3031    -5.1583    -3.6102 H       
@<TRIPOS>BOND
   1    1    2 1
   2    1    6 2
   3    1   30 1
   4    2    3 2
   5    2   31 1
   6    3    4 1
   7    3   32 1
   8    4    5 1
   9    4    7 2
  10    5    6 1
  11    5   10 am
  12    6   33 1
  13    7    8 1
  14    7   15 1
  15    8    9 2
  16    8   34 1
  17    9   10 1
  18    9   12 1
  19   10   11 2
  20   12   13 1
  21   12   14 2
  22   13   35 1
  23   15   16 1
  24   15   36 1
  25   15   37 1
  26   16   17 1
  27   16   38 1
  28   16   39 1
  29   17   18 1
  30   17   22 1
  31   18   19 1
  32   18   27 1
  33   18   40 1
  34   19   20 ar
  35   19   23 ar
  36   20   21 1
  37   20   26 ar
  38   21   22 1
  39   21   41 1
  40   21   42 1
  41   22   43 1
  42   22   44 1
  43   23   24 ar
  44   23   45 1
  45   24   25 ar
  46   24   46 1
  47   25   26 ar
  48   25   47 1
  49   26   48 1
  50   27   28 1
  51   27   29 1
  52   27   49 1
  53   28   29 1
  54   28   50 1
  55   28   51 1
  56   29   52 1
  57   29   53 1

#	End of record

