#	Name: ASD03731292
#	Creating user name:	WinNT
#	Creation time:	15. 06. 2019 20:45

#	Modifying user name:	WinNT
#	Modification time:	15. 06. 2019 20:45

#	Program:	/corina/corina34_cracker 3.40 0067  02.08.2006

@<TRIPOS>MOLECULE
ASD03731292
  56   60    0    0    0
SMALL
NO_CHARGES


@<TRIPOS>ATOM
   1 C1            -0.0184     1.5028     0.0103 C.2     
   2 N2             1.3897    -0.4735    -0.0138 N.am    
   3 C3             0.0021    -0.0041     0.0020 C.3     
   4 O4             1.0197     2.1211     0.0037 O.2     
   5 O5            -1.1898     2.1580     0.0194 O.3     
   6 C6             1.6539    -1.7951    -0.0234 C.2     
   7 O7             0.7406    -2.5977    -0.0190 O.2     
   8 N8             2.9305    -2.2270    -0.0379 N.am    
   9 C9             3.2177    -3.6636    -0.0483 C.3     
  10 C10            4.7321    -3.8808    -0.0640 C.3     
  11 O11            1.0409    -9.6692    -2.1996 O.3     
  12 C12            0.9107   -11.0813    -2.4481 C.3     
  13 O13            2.1951   -11.4551    -2.9806 O.3     
  14 C14            3.0825   -10.5578    -2.4588 C.ar    
  15 C15            2.3722    -9.4594    -1.9797 C.ar    
  16 C16            4.4613   -10.5903    -2.3513 C.ar    
  17 C17            5.1482    -9.5300    -1.7678 C.ar    
  18 C18            4.4284    -8.4346    -1.3004 C.ar    
  19 C19            3.0532    -8.4019    -1.4005 C.ar    
  20 O20            6.4854    -9.3714    -1.5510 O.3     
  21 C21            5.4377    -7.4574    -0.7595 C.3     
  22 C22            6.7676    -7.9774    -1.3220 C.3     
  23 N23            5.0193    -5.3173    -0.0744 N.am    
  24 C24            5.1567    -6.0491    -1.1981 C.2     
  25 C25            5.4432    -7.4135     0.7398 C.ar    
  26 C26            5.6405    -8.3617     1.7186 C.ar    
  27 C27            5.5831    -8.0021     3.0534 C.ar    
  28 C28            5.3265    -6.6885     3.4019 C.ar    
  29 C29            5.1272    -5.7353     2.4251 C.ar    
  30 C30            5.1836    -6.0882     1.0790 C.ar    
  31 O31            5.0705    -5.6484    -2.3397 O.2     
  32 C32           -1.1335     3.6089     0.0270 C.3     
  33 C33           -2.5551     4.1744     0.0369 C.3     
  34 H34            2.1184     0.1668    -0.0173 H       
  35 H35           -0.4983    -0.3791     0.8948 H       
  36 H36           -0.5153    -0.3696    -0.8850 H       
  37 H37            3.6592    -1.5867    -0.0414 H       
  38 H38            2.7936    -4.1254     0.8433 H       
  39 H39            2.7766    -4.1158    -0.9366 H       
  40 H40            5.1563    -3.4190    -0.9556 H       
  41 H41            5.1733    -3.4285     0.8243 H       
  42 H42            0.7103   -11.6167    -1.5200 H       
  43 H43            0.1237   -11.2707    -3.1782 H       
  44 H44            5.0082   -11.4443    -2.7228 H       
  45 H45            2.5061    -7.5491    -1.0266 H       
  46 H46            7.5690    -7.8593    -0.5926 H       
  47 H47            7.0159    -7.4741    -2.2564 H       
  48 H48            5.8405    -9.3869     1.4442 H       
  49 H49            5.7387    -8.7453     3.8214 H       
  50 H50            5.2816    -6.4078     4.4438 H       
  51 H51            4.9268    -4.7116     2.7051 H       
  52 H52           -0.6017     3.9472     0.9164 H       
  53 H53           -0.6102     3.9569    -0.8636 H       
  54 H54           -3.0869     3.8361    -0.8525 H       
  55 H55           -3.0784     3.8265     0.9275 H       
  56 H56           -2.5128     5.2636     0.0426 H       
@<TRIPOS>BOND
   1    1    3 1
   2    1    4 2
   3    1    5 1
   4    2    3 1
   5    2    6 am
   6    2   34 1
   7    3   35 1
   8    3   36 1
   9    5   32 1
  10    6    7 2
  11    6    8 am
  12    8    9 1
  13    8   37 1
  14    9   10 1
  15    9   38 1
  16    9   39 1
  17   10   23 1
  18   10   40 1
  19   10   41 1
  20   11   12 1
  21   11   15 1
  22   12   13 1
  23   12   42 1
  24   12   43 1
  25   13   14 1
  26   14   15 ar
  27   14   16 ar
  28   15   19 ar
  29   16   17 ar
  30   16   44 1
  31   17   18 ar
  32   17   20 1
  33   18   19 ar
  34   18   21 1
  35   19   45 1
  36   20   22 1
  37   21   22 1
  38   21   24 1
  39   21   25 1
  40   22   46 1
  41   22   47 1
  42   23   24 am
  43   23   30 1
  44   24   31 2
  45   25   26 ar
  46   25   30 ar
  47   26   27 ar
  48   26   48 1
  49   27   28 ar
  50   27   49 1
  51   28   29 ar
  52   28   50 1
  53   29   30 ar
  54   29   51 1
  55   32   33 1
  56   32   52 1
  57   32   53 1
  58   33   54 1
  59   33   55 1
  60   33   56 1

#	End of record

