#	Name: ASD01812520
#	Creating user name:	WinNT
#	Creation time:	15. 06. 2019 19:28

#	Modifying user name:	WinNT
#	Modification time:	15. 06. 2019 19:28

#	Program:	/corina/corina34_cracker 3.40 0067  02.08.2006

@<TRIPOS>MOLECULE
ASD01812520
  47   51    0    0    0
SMALL
NO_CHARGES


@<TRIPOS>ATOM
   1 C1            -0.0177     1.4559     0.0100 C.ar    
   2 C2             0.0021    -0.0041     0.0020 C.ar    
   3 C3            -1.2308    -0.7010     0.0100 C.ar    
   4 C4            -2.4445     0.0179     0.0258 C.ar    
   5 C5            -2.4563     1.3721     0.0337 C.ar    
   6 C6            -1.2628     2.1110     0.0314 C.ar    
   7 C7            -1.2223    -2.1043     0.0024 C.ar    
   8 C8            -0.0349    -2.7735    -0.0125 C.ar    
   9 C9             1.1743    -2.0857    -0.0198 C.ar    
  10 C10            1.2025    -0.7215    -0.0128 C.ar    
  11 N11            1.1113     2.1837     0.0032 N.2     
  12 C12            1.0868     3.4848     0.0104 C.2     
  13 N13           -0.0647     4.2045     0.0252 N.am    
  14 C14           -1.2647     3.5791     0.0393 C.2     
  15 C15           -3.7505    -0.7340     0.0337 C.3     
  16 C16           -4.1106    -1.1005     1.4504 C.ar    
  17 C17           -3.6813    -2.2958     1.9926 C.ar    
  18 C18           -4.8724    -0.2379     2.2260 C.ar    
  19 C19           -5.1806    -0.6133     3.5222 C.ar    
  20 C20           -4.7199    -1.8333     3.9999 C.ar    
  21 N21           -3.9915    -2.6263     3.2317 N.ar    
  22 O22           -2.3063     4.2100     0.0572 O.2     
  23 O23           -5.0148    -2.2126     5.2688 O.3     
  24 C24           -4.5119    -3.4784     5.7009 C.3     
  25 C25           -0.0098     5.6063     0.0322 C.2     
  26 N26           -1.0234     6.4414     0.1383 N.2     
  27 N27           -0.5707     7.6445     0.1047 N.pl3   
  28 N28            0.7089     7.6503    -0.0199 N.2     
  29 C29            1.1361     6.4091    -0.0663 C.2     
  30 N30           -1.3462     8.7662     0.1839 N.3     
  31 H31           -3.4021     1.8934     0.0454 H       
  32 H32           -2.1531    -2.6520     0.0086 H       
  33 H33           -0.0328    -3.8535    -0.0183 H       
  34 H34            2.1022    -2.6383    -0.0309 H       
  35 H35            2.1472    -0.1983    -0.0190 H       
  36 H36            2.0265     4.0172     0.0046 H       
  37 H37           -4.5341    -0.1056    -0.3894 H       
  38 H38           -3.6509    -1.6413    -0.5622 H       
  39 H39           -3.0845    -2.9687     1.3948 H       
  40 H40           -5.2166     0.7050     1.8275 H       
  41 H41           -5.7711     0.0339     4.1536 H       
  42 H42           -4.9096    -4.2654     5.0601 H       
  43 H43           -3.4235    -3.4766     5.6413 H       
  44 H44           -4.8190    -3.6589     6.7311 H       
  45 H45            2.1587     6.0755    -0.1632 H       
  46 H46           -1.6425     9.0664    -0.7327 H       
  47 H47           -2.1394     8.6155     0.7890 H       
@<TRIPOS>BOND
   1    1    2 ar
   2    1   11 1
   3    1    6 ar
   4    2   10 ar
   5    2    3 ar
   6    3    4 ar
   7    3    7 ar
   8    4    5 ar
   9    4   15 1
  10    5    6 ar
  11    5   31 1
  12    6   14 1
  13    7    8 ar
  14    7   32 1
  15    8    9 ar
  16    8   33 1
  17    9   10 ar
  18    9   34 1
  19   10   35 1
  20   11   12 2
  21   12   13 1
  22   12   36 1
  23   13   14 am
  24   13   25 1
  25   14   22 2
  26   15   16 1
  27   15   37 1
  28   15   38 1
  29   16   18 ar
  30   16   17 ar
  31   17   21 ar
  32   17   39 1
  33   18   19 ar
  34   18   40 1
  35   19   20 ar
  36   19   41 1
  37   20   21 ar
  38   20   23 1
  39   23   24 1
  40   24   42 1
  41   24   43 1
  42   24   44 1
  43   25   26 2
  44   25   29 1
  45   26   27 1
  46   27   28 1
  47   27   30 1
  48   28   29 2
  49   29   45 1
  50   30   46 1
  51   30   47 1

#	End of record

