#	Name: ASD01884403
#	Creating user name:	WinNT
#	Creation time:	15. 06. 2019 19:48

#	Modifying user name:	WinNT
#	Modification time:	15. 06. 2019 19:48

#	Program:	/corina/corina34_cracker 3.40 0067  02.08.2006

@<TRIPOS>MOLECULE
ASD01884403
  35   37    0    0    0
SMALL
NO_CHARGES


@<TRIPOS>ATOM
   1 C1            -0.0164     1.3576     0.0095 C.2     
   2 C2             0.0021    -0.0041     0.0020 C.2     
   3 C3             1.2440    -0.6751    -0.0134 C.2     
   4 C4             2.4025     0.0466    -0.0206 C.2     
   5 N5             2.3700     1.4023    -0.0130 N.am    
   6 C6             1.1987     2.0651     0.0017 C.2     
   7 C7             1.2898    -2.1582    -0.0214 C.ar    
   8 C8             3.6266     2.1554    -0.0210 C.3     
   9 O9             1.1912     3.2856     0.0087 O.2     
  10 C10            4.0439     2.4213    -1.4444 C.ar    
  11 C11            3.6200     3.5700    -2.0859 C.ar    
  12 C12            4.0027     3.8139    -3.3916 C.ar    
  13 C13            4.8098     2.9092    -4.0558 C.ar    
  14 C14            5.2345     1.7608    -3.4140 C.ar    
  15 C15            4.8553     1.5191    -2.1068 C.ar    
  16 C16            0.9879    -2.8621    -1.1876 C.ar    
  17 C17            1.6400    -2.8533     1.1342 C.ar    
  18 C18            1.6810    -4.2328     1.1215 C.ar    
  19 C19            1.3758    -4.9268    -0.0357 C.ar    
  20 C20            1.0325    -4.2440    -1.1879 C.ar    
  21 F21            0.6525    -2.1951    -2.3136 F       
  22 H22           -0.9563     1.8894     0.0169 H       
  23 H23           -0.9217    -0.5635     0.0082 H       
  24 H24            3.3529    -0.4663    -0.0321 H       
  25 H25            3.4857     3.1028     0.4993 H       
  26 H26            4.4006     1.5760     0.4824 H       
  27 H27            2.9894     4.2769    -1.5671 H       
  28 H28            3.6709     4.7110    -3.8930 H       
  29 H29            5.1083     3.0993    -5.0761 H       
  30 H30            5.8648     1.0539    -3.9330 H       
  31 H31            5.1871     0.6220    -1.6054 H       
  32 H32            1.8793    -2.3134     2.0385 H       
  33 H33            1.9524    -4.7718     2.0172 H       
  34 H34            1.4098    -6.0063    -0.0401 H       
  35 H35            0.7949    -4.7909    -2.0883 H       
@<TRIPOS>BOND
   1    1    2 2
   2    1    6 1
   3    1   22 1
   4    2    3 1
   5    2   23 1
   6    3    4 2
   7    3    7 1
   8    4    5 1
   9    4   24 1
  10    5    6 am
  11    5    8 1
  12    6    9 2
  13    7   16 ar
  14    7   17 ar
  15    8   10 1
  16    8   25 1
  17    8   26 1
  18   10   11 ar
  19   10   15 ar
  20   11   12 ar
  21   11   27 1
  22   12   13 ar
  23   12   28 1
  24   13   14 ar
  25   13   29 1
  26   14   15 ar
  27   14   30 1
  28   15   31 1
  29   16   21 1
  30   16   20 ar
  31   17   18 ar
  32   17   32 1
  33   18   19 ar
  34   18   33 1
  35   19   20 ar
  36   19   34 1
  37   20   35 1

#	End of record

