#	Name: ASD02198286
#	Creating user name:	WinNT
#	Creation time:	15. 06. 2019 20:19

#	Modifying user name:	WinNT
#	Modification time:	15. 06. 2019 20:19

#	Program:	/corina/corina34_cracker 3.40 0067  02.08.2006

@<TRIPOS>MOLECULE
ASD02198286
  39   41    0    0    0
SMALL
NO_CHARGES


@<TRIPOS>ATOM
   1 C1            -0.0167     1.3799     0.0096 C.2     
   2 C2             0.0021    -0.0041     0.0020 C.2     
   3 S3             1.6544     1.9377    -0.0033 S.3     
   4 C4             2.2112     0.3224    -0.0173 C.2     
   5 N5             1.2119    -0.5125    -0.0123 N.2     
   6 N6            -1.1462    -0.7784     0.0088 N.pl3   
   7 C7            -1.1641     2.1948     0.0197 C.2     
   8 O8            -2.2731     1.6867     0.0225 O.2     
   9 C9            -1.0256     3.6646     0.0270 C.2     
  10 N10            3.5365    -0.0463    -0.0324 N.pl3   
  11 C11            3.9020    -1.4650    -0.0434 C.3     
  12 C12           -2.0378     4.5828     0.0370 C.2     
  13 C13           -1.3616     5.8327     0.0405 C.2     
  14 N14           -0.0808     5.5582     0.0326 N.2     
  15 O15            0.1229     4.3668     0.0310 O.3     
  16 C16           -1.9830     7.1807     0.0509 C.ar    
  17 C17           -1.1808     8.3200     0.0531 C.ar    
  18 C18           -3.3702     7.3108     0.0527 C.ar    
  19 C19           -3.9432     8.5661     0.0624 C.ar    
  20 C20           -3.1419     9.6952     0.0699 C.ar    
  21 C21           -1.7631     9.5710     0.0628 C.ar    
  22 C22            3.8932    -1.9827    -1.4832 C.3     
  23 C23            5.3012    -1.6358     0.5515 C.3     
  24 Cl24          -3.8686    11.2717     0.0815 Cl      
  25 H25           -2.0179    -0.3531     0.0194 H       
  26 H26           -1.0787    -1.7460     0.0030 H       
  27 H27            4.2289     0.6329    -0.0357 H       
  28 H28            3.1833    -2.0300     0.5502 H       
  29 H29           -3.1024     4.4010     0.0408 H       
  30 H30           -0.1051     8.2241     0.0475 H       
  31 H31           -3.9960     6.4307     0.0461 H       
  32 H32           -5.0183     8.6680     0.0638 H       
  33 H33           -1.1421    10.4546     0.0690 H       
  34 H34            4.6119    -1.4177    -2.0768 H       
  35 H35            4.1652    -3.0381    -1.4914 H       
  36 H36            2.8964    -1.8610    -1.9070 H       
  37 H37            5.3074    -1.2670     1.5772 H       
  38 H38            5.5731    -2.6913     0.5432 H       
  39 H39            6.0198    -1.0708    -0.0421 H       
@<TRIPOS>BOND
   1    1    2 2
   2    1    3 1
   3    1    7 1
   4    2    6 1
   5    2    5 1
   6    3    4 1
   7    4    5 2
   8    4   10 1
   9    6   25 1
  10    6   26 1
  11    7    8 2
  12    7    9 1
  13    9   12 2
  14    9   15 1
  15   10   11 1
  16   10   27 1
  17   11   22 1
  18   11   23 1
  19   11   28 1
  20   12   13 1
  21   12   29 1
  22   13   14 2
  23   13   16 1
  24   14   15 1
  25   16   17 ar
  26   16   18 ar
  27   17   21 ar
  28   17   30 1
  29   18   19 ar
  30   18   31 1
  31   19   20 ar
  32   19   32 1
  33   20   21 ar
  34   20   24 1
  35   21   33 1
  36   22   34 1
  37   22   35 1
  38   22   36 1
  39   23   37 1
  40   23   38 1
  41   23   39 1

#	End of record

