#	Name: ASD01120294
#	Creating user name:	WinNT
#	Creation time:	15. 06. 2019 18:59

#	Modifying user name:	WinNT
#	Modification time:	15. 06. 2019 18:59

#	Program:	/corina/corina34_cracker 3.40 0067  02.08.2006

@<TRIPOS>MOLECULE
ASD01120294
  42   44    0    0    0
SMALL
NO_CHARGES


@<TRIPOS>ATOM
   1 C1             0.3607     1.2512     0.6217 C.3     
   2 C2             0.2690    -0.2255     0.2320 C.3     
   3 O3            -1.0764    -0.7099     0.4841 O.3     
   4 C4            -1.3265    -2.0027     0.1920 C.2     
   5 O5            -0.4436    -2.7055    -0.2610 O.2     
   6 C6            -2.6636    -2.5610     0.4208 C.2     
   7 N7            -3.7475    -1.8670     0.9289 N.pl3   
   8 C8            -4.8241    -2.7198     0.9988 C.ar    
   9 C9            -4.3988    -3.9748     0.5224 C.ar    
  10 C10           -3.0391    -3.8431     0.1621 C.2     
  11 C11           -5.3088    -5.0487     0.4827 C.ar    
  12 C12           -6.6093    -4.8569     0.9123 C.ar    
  13 C13           -7.0180    -3.6165     1.3792 C.ar    
  14 C14           -6.1393    -2.5561     1.4244 C.ar    
  15 N15           -6.5949    -1.2401     1.9265 N.pl3   
  16 O16           -7.7455    -1.0955     2.2991 O.2     
  17 O17           -5.8192    -0.3019     1.9670 O.2     
  18 N18           -4.9022    -6.2949     0.0137 N.pl3   
  19 C19           -5.7571    -7.3945     0.1210 C.ar    
  20 C20           -5.8822    -8.2849    -0.9379 C.ar    
  21 C21           -6.7280    -9.3713    -0.8282 C.ar    
  22 C22           -7.4500    -9.5729     0.3337 C.ar    
  23 C23           -7.3278    -8.6884     1.3899 C.ar    
  24 C24           -6.4798    -7.6033     1.2893 C.ar    
  25 C25           -8.1167    -8.9122     2.6543 C.3     
  26 H26            1.3707     1.6149     0.4325 H       
  27 H27           -0.3500     1.8280     0.0297 H       
  28 H28            0.1267     1.3629     1.6804 H       
  29 H29            0.5030    -0.3371    -0.8267 H       
  30 H30            0.9797    -0.8023     0.8240 H       
  31 H31           -3.7478    -0.9335     1.1924 H       
  32 H32           -2.4089    -4.6220    -0.2409 H       
  33 H33           -7.3108    -5.6776     0.8836 H       
  34 H34           -8.0366    -3.4802     1.7114 H       
  35 H35           -4.0253    -6.3996    -0.3876 H       
  36 H36           -5.3191    -8.1277    -1.8460 H       
  37 H37           -6.8258   -10.0640    -1.6510 H       
  38 H38           -8.1111   -10.4229     0.4165 H       
  39 H39           -6.3848    -6.9130     2.1144 H       
  40 H40           -7.5358    -9.5284     3.3407 H       
  41 H41           -8.3330    -7.9519     3.1224 H       
  42 H42           -9.0517    -9.4183     2.4143 H       
@<TRIPOS>BOND
   1    1    2 1
   2    1   26 1
   3    1   27 1
   4    1   28 1
   5    2    3 1
   6    2   29 1
   7    2   30 1
   8    3    4 1
   9    4    5 2
  10    4    6 1
  11    6    7 1
  12    6   10 2
  13    7    8 1
  14    7   31 1
  15    8    9 ar
  16    8   14 ar
  17    9   10 1
  18    9   11 ar
  19   10   32 1
  20   11   12 ar
  21   11   18 1
  22   12   13 ar
  23   12   33 1
  24   13   14 ar
  25   13   34 1
  26   14   15 1
  27   15   16 2
  28   15   17 2
  29   18   19 1
  30   18   35 1
  31   19   20 ar
  32   19   24 ar
  33   20   21 ar
  34   20   36 1
  35   21   22 ar
  36   21   37 1
  37   22   23 ar
  38   22   38 1
  39   23   24 ar
  40   23   25 1
  41   24   39 1
  42   25   40 1
  43   25   41 1
  44   25   42 1

#	End of record

