#	Name: ASD08070096
#	Creating user name:	WinNT
#	Creation time:	15. 06. 2019 21:14

#	Modifying user name:	WinNT
#	Modification time:	15. 06. 2019 21:14

#	Program:	/corina/corina34_cracker 3.40 0067  02.08.2006

@<TRIPOS>MOLECULE
ASD08070096
  41   43    0    0    0
SMALL
NO_CHARGES


@<TRIPOS>ATOM
   1 C1            -0.0166     1.3737     0.0096 C.ar    
   2 C2             0.0021    -0.0041     0.0020 C.ar    
   3 C3             1.1690     2.0896     0.0021 C.ar    
   4 C4             2.3853     1.4280    -0.0131 C.ar    
   5 C5             2.4205     0.0371    -0.0209 C.ar    
   6 C6             1.2217    -0.6864    -0.0129 C.ar    
   7 C7             1.2460    -2.1616    -0.0206 C.2     
   8 N8             0.0901    -2.8546    -0.0128 N.am    
   9 O9             2.3088    -2.7521    -0.0340 O.2     
  10 O10            3.5455     2.1377    -0.0208 O.3     
  11 C11            3.4346     3.5623    -0.0125 C.3     
  12 O12            3.6108    -0.6152    -0.0363 O.3     
  13 C13            0.1141    -4.3194    -0.0204 C.3     
  14 C14           -1.1782    -4.8477     0.5990 C.3     
  15 C15            0.2593    -4.8065    -1.4384 C.ar    
  16 C16           -0.4566    -5.8735    -1.9324 C.ar    
  17 C17           -1.4530    -6.6367    -1.0996 C.3     
  18 C18           -1.2306    -6.3653     0.3869 C.3     
  19 C19            1.1562    -4.1390    -2.2628 C.ar    
  20 C20            1.3374    -4.5387    -3.5705 C.ar    
  21 C21            0.6216    -5.6131    -4.0654 C.ar    
  22 C22           -0.2703    -6.2765    -3.2487 C.ar    
  23 H23           -0.9607     1.8981     0.0169 H       
  24 H24           -0.9258    -0.5567     0.0079 H       
  25 H25            1.1447     3.1693     0.0078 H       
  26 H26           -0.7578    -2.3836    -0.0021 H       
  27 H27            4.4309     4.0044    -0.0200 H       
  28 H28            2.8854     3.8892    -0.8955 H       
  29 H29            2.9028     3.8801     0.8843 H       
  30 H30            3.9645    -0.8089     0.8426 H       
  31 H31            0.9632    -4.6674     0.5678 H       
  32 H32           -1.1916    -4.6254     1.6660 H       
  33 H33           -2.0354    -4.3795     0.1151 H       
  34 H34           -2.4619    -6.3287    -1.3742 H       
  35 H35           -1.3390    -7.7037    -1.2911 H       
  36 H36           -0.2891    -6.8131     0.7050 H       
  37 H37           -2.0525    -6.7885     0.9643 H       
  38 H38            1.7161    -3.3000    -1.8768 H       
  39 H39            2.0357    -4.0140    -4.2057 H       
  40 H40            0.7606    -5.9321    -5.0878 H       
  41 H41           -0.8286    -7.1160    -3.6359 H       
@<TRIPOS>BOND
   1    1    2 ar
   2    1    3 ar
   3    1   23 1
   4    2    6 ar
   5    2   24 1
   6    3    4 ar
   7    3   25 1
   8    4    5 ar
   9    4   10 1
  10    5    6 ar
  11    5   12 1
  12    6    7 1
  13    7    8 am
  14    7    9 2
  15    8   13 1
  16    8   26 1
  17   10   11 1
  18   11   27 1
  19   11   28 1
  20   11   29 1
  21   12   30 1
  22   13   14 1
  23   13   15 1
  24   13   31 1
  25   14   18 1
  26   14   32 1
  27   14   33 1
  28   15   16 ar
  29   15   19 ar
  30   16   17 1
  31   16   22 ar
  32   17   18 1
  33   17   34 1
  34   17   35 1
  35   18   36 1
  36   18   37 1
  37   19   20 ar
  38   19   38 1
  39   20   21 ar
  40   20   39 1
  41   21   22 ar
  42   21   40 1
  43   22   41 1

#	End of record

