#	Name: ASD00310051
#	Creating user name:	WinNT
#	Creation time:	15. 06. 2019 18:33

#	Modifying user name:	WinNT
#	Modification time:	15. 06. 2019 18:33

#	Program:	/corina/corina34_cracker 3.40 0067  02.08.2006

@<TRIPOS>MOLECULE
ASD00310051
  38   41    0    0    0
SMALL
NO_CHARGES


@<TRIPOS>ATOM
   1 N1            -0.0163     1.3500     0.0095 N.pl3   
   2 C2             0.0021    -0.0041     0.0020 C.2     
   3 C3             1.2921    -0.4483    -0.0127 C.2     
   4 C4             2.1475     0.7539    -0.0144 C.ar    
   5 C5             3.5230     0.9583    -0.0264 C.ar    
   6 C6             4.0239     2.2538    -0.0243 C.ar    
   7 C7             3.1465     3.3436    -0.0100 C.ar    
   8 C8             1.7850     3.1436     0.0019 C.ar    
   9 C9             1.2694     1.8502    -0.0001 C.ar    
  10 C10            1.7402    -1.8454    -0.0240 C.2     
  11 O11            2.9286    -2.1027    -0.0364 O.2     
  12 O12            0.8342    -2.8441    -0.0208 O.3     
  13 C13            5.4898     2.4821    -0.0365 C.ar    
  14 C14            6.0532     3.3601    -0.9605 C.ar    
  15 C15            7.4174     3.5690    -0.9671 C.ar    
  16 C16            8.2252     2.9084    -0.0591 C.ar    
  17 C17            7.6714     2.0358     0.8602 C.ar    
  18 C18            6.3078     1.8237     0.8796 C.ar    
  19 O19           11.4802     2.3246     0.6384 O.3     
  20 C20           10.3944     2.9917     1.2947 C.3     
  21 C21            9.7143     3.1399    -0.0719 C.3     
  22 C22           10.5517     1.8884    -0.3629 C.3     
  23 O23           10.1049     4.3014    -0.8070 O.3     
  24 Cl24           3.7801     4.9599    -0.0068 Cl      
  25 H25           -0.8206     1.8922     0.0164 H       
  26 H26           -0.8729    -0.6372     0.0070 H       
  27 H27            4.1975     0.1150    -0.0370 H       
  28 H28            1.1155     3.9910     0.0128 H       
  29 H29            1.1773    -3.7482    -0.0286 H       
  30 H30            5.4234     3.8758    -1.6703 H       
  31 H31            7.8550     4.2492    -1.6828 H       
  32 H32            8.3069     1.5225     1.5667 H       
  33 H33            5.8759     1.1457     1.6008 H       
  34 H34            9.8454     2.3500     1.9839 H       
  35 H35           10.6787     3.9441     1.7422 H       
  36 H36           10.9738     1.8742    -1.3677 H       
  37 H37           10.0438     0.9587    -0.1065 H       
  38 H38           11.0593     4.4564    -0.8196 H       
@<TRIPOS>BOND
   1    1    2 1
   2    1    9 1
   3    1   25 1
   4    2    3 2
   5    2   26 1
   6    3    4 1
   7    3   10 1
   8    4    5 ar
   9    4    9 ar
  10    5    6 ar
  11    5   27 1
  12    6    7 ar
  13    6   13 1
  14    7    8 ar
  15    7   24 1
  16    8    9 ar
  17    8   28 1
  18   10   11 2
  19   10   12 1
  20   12   29 1
  21   13   14 ar
  22   13   18 ar
  23   14   15 ar
  24   14   30 1
  25   15   16 ar
  26   15   31 1
  27   16   17 ar
  28   16   21 1
  29   17   18 ar
  30   17   32 1
  31   18   33 1
  32   19   20 1
  33   19   22 1
  34   20   21 1
  35   20   34 1
  36   20   35 1
  37   21   22 1
  38   21   23 1
  39   22   36 1
  40   22   37 1
  41   23   38 1

#	End of record

