#	Name: ASD02038100
#	Creating user name:	WinNT
#	Creation time:	15. 06. 2019 20:16

#	Modifying user name:	WinNT
#	Modification time:	15. 06. 2019 20:16

#	Program:	/corina/corina34_cracker 3.40 0067  02.08.2006

@<TRIPOS>MOLECULE
ASD02038100
  62   63    0    0    0
SMALL
NO_CHARGES


@<TRIPOS>ATOM
   1 C1            -1.0564     0.6218     0.0739 C.ar    
   2 C2            -0.9583    -0.7439    -0.1320 C.ar    
   3 C3             0.0849     1.3811     0.2752 C.ar    
   4 C4             1.3273     0.7784     0.2711 C.ar    
   5 C5             1.4311    -0.5973     0.0641 C.ar    
   6 C6             0.2775    -1.3565    -0.1376 C.ar    
   7 C7             2.7581    -1.2485     0.0581 C.2     
   8 N8             4.2206    -4.3124     0.8369 N.3     
   9 C9             4.2068    -3.2198    -0.1449 C.3     
  10 C10            2.8539    -2.5560    -0.1388 C.2     
  11 C11            5.4320    -5.1314     0.6961 C.3     
  12 C12            5.2955    -6.0375    -0.5292 C.3     
  13 C13            6.6034    -6.8007    -0.7474 C.3     
  14 O14            4.2310    -6.9672    -0.3179 O.3     
  15 O15            6.5172    -7.5577    -1.9563 O.3     
  16 C16            7.6046    -8.2990    -2.2995 C.ar    
  17 C17            7.5880    -9.0575    -3.4606 C.ar    
  18 C18            8.6919    -9.8102    -3.8101 C.ar    
  19 C19            9.8187    -9.8075    -2.9986 C.ar    
  20 C20            9.8345    -9.0479    -1.8363 C.ar    
  21 C21            8.7316    -8.2916    -1.4911 C.ar    
  22 Cl22          -2.6148     1.3868     0.0725 Cl      
  23 Cl23          -0.0471     3.0928     0.5325 Cl      
  24 C24            4.0926    -3.7926     2.2048 C.3     
  25 C25            3.7130    -4.9337     3.1506 C.3     
  26 C26            3.6918    -4.4170     4.5906 C.3     
  27 C27            3.3122    -5.5582     5.5364 C.3     
  28 N28           10.9376   -10.5703    -3.3517 N.am    
  29 S29           11.2790   -11.9680    -2.5320 S.o2    
  30 O30           12.4513   -12.4663    -3.1619 O.2     
  31 O31           11.2907   -11.5789    -1.1654 O.2     
  32 C32            9.8639   -13.0503    -2.8736 C.3     
  33 H33           -1.8514    -1.3308    -0.2880 H       
  34 H34            2.2167     1.3708     0.4274 H       
  35 H35            0.3523    -2.4219    -0.2979 H       
  36 H36            3.6495    -0.6590     0.2141 H       
  37 H37            4.9718    -2.4881     0.1150 H       
  38 H38            4.4102    -3.6209    -1.1378 H       
  39 H39            1.9625    -3.1454    -0.2947 H       
  40 H40            6.2979    -4.4811     0.5724 H       
  41 H41            5.5621    -5.7440     1.5882 H       
  42 H42            5.0783    -5.4301    -1.4078 H       
  43 H43            7.4293    -6.0930    -0.8200 H       
  44 H44            6.7752    -7.4746     0.0919 H       
  45 H45            4.3200    -7.4898     0.4908 H       
  46 H46            6.7113    -9.0598    -4.0914 H       
  47 H47            8.6787   -10.4010    -4.7141 H       
  48 H48           10.7105    -9.0452    -1.2046 H       
  49 H49            8.7439    -7.7005    -0.5873 H       
  50 H50            5.0425    -3.3605     2.5197 H       
  51 H51            3.3182    -3.0260     2.2312 H       
  52 H52            2.7256    -5.3119     2.8858 H       
  53 H53            4.4450    -5.7366     3.0635 H       
  54 H54            4.6792    -4.0388     4.8555 H       
  55 H55            2.9598    -3.6141     4.6778 H       
  56 H56            2.3248    -5.9364     5.2715 H       
  57 H57            4.0442    -6.3611     5.4492 H       
  58 H58            3.2971    -5.1901     6.5622 H       
  59 H59           11.5131   -10.2802    -4.0766 H       
  60 H60            9.8368   -13.2882    -3.9370 H       
  61 H61            9.9629   -13.9705    -2.2978 H       
  62 H62            8.9416   -12.5425    -2.5913 H       
@<TRIPOS>BOND
   1    1    2 ar
   2    1    3 ar
   3    1   22 1
   4    2    6 ar
   5    2   33 1
   6    3    4 ar
   7    3   23 1
   8    4    5 ar
   9    4   34 1
  10    5    6 ar
  11    5    7 1
  12    6   35 1
  13    7   10 2
  14    7   36 1
  15    8    9 1
  16    8   11 1
  17    8   24 1
  18    9   10 1
  19    9   37 1
  20    9   38 1
  21   10   39 1
  22   11   12 1
  23   11   40 1
  24   11   41 1
  25   12   14 1
  26   12   13 1
  27   12   42 1
  28   13   15 1
  29   13   43 1
  30   13   44 1
  31   14   45 1
  32   15   16 1
  33   16   17 ar
  34   16   21 ar
  35   17   18 ar
  36   17   46 1
  37   18   19 ar
  38   18   47 1
  39   19   20 ar
  40   19   28 1
  41   20   21 ar
  42   20   48 1
  43   21   49 1
  44   24   25 1
  45   24   50 1
  46   24   51 1
  47   25   26 1
  48   25   52 1
  49   25   53 1
  50   26   27 1
  51   26   54 1
  52   26   55 1
  53   27   56 1
  54   27   57 1
  55   27   58 1
  56   28   29 am
  57   28   59 1
  58   29   30 2
  59   29   31 2
  60   29   32 1
  61   32   60 1
  62   32   61 1
  63   32   62 1

#	End of record

