#	Name: ASD02560175
#	Creating user name:	WinNT
#	Creation time:	15. 06. 2019 20:24

#	Modifying user name:	WinNT
#	Modification time:	15. 06. 2019 20:24

#	Program:	/corina/corina34_cracker 3.40 0067  02.08.2006

@<TRIPOS>MOLECULE
ASD02560175
  45   47    0    0    0
SMALL
NO_CHARGES


@<TRIPOS>ATOM
   1 C1            -1.1146     1.5040     0.6677 C.ar    
   2 C2            -1.0603     0.1344     0.8682 C.ar    
   3 C3            -1.2168    -0.7362    -0.2020 C.ar    
   4 C4            -1.4283    -0.2382    -1.4767 C.ar    
   5 C5            -1.4837     1.1427    -1.6826 C.ar    
   6 C6            -1.3307     2.0126    -0.5984 C.ar    
   7 F7            -0.9613     2.3446     1.7141 F       
   8 C8            -1.7078     1.6798    -3.0350 C.2     
   9 C9            -1.7607     3.0126    -3.2308 C.2     
  10 O10           -1.1620    -2.0786     0.0015 O.3     
  11 C11            0.0451    -2.6938    -0.1184 C.ar    
  12 C12            1.1889    -1.9419    -0.3317 C.ar    
  13 C13            2.4157    -2.5680    -0.4535 C.ar    
  14 C14            2.5043    -3.9463    -0.3623 C.ar    
  15 C15            1.3644    -4.7029    -0.1488 C.ar    
  16 C16            0.1339    -4.0797    -0.0213 C.ar    
  17 O17           -0.9866    -4.8209     0.1888 O.3     
  18 C18           -0.8215    -6.2382     0.2676 C.3     
  19 C19           -2.1815    -6.8976     0.5054 C.3     
  20 N20           -3.0437    -6.6718    -0.6574 N.am    
  21 C21           -3.0415    -7.5722    -1.6878 C.2     
  22 C22           -3.8343    -5.5840    -0.6996 C.2     
  23 N23           -4.6364    -5.3523    -1.7553 N.am    
  24 C24           -4.6596    -6.2129    -2.7930 C.2     
  25 C25           -3.8361    -7.3640    -2.7594 C.2     
  26 O26           -5.3854    -6.0042    -3.7484 O.2     
  27 O27           -3.8242    -4.7994     0.2292 O.2     
  28 F28            3.7047    -4.5545    -0.4823 F       
  29 C29           -1.9787     3.5349    -4.5462 C.1     
  30 N30           -2.1515     3.9493    -5.5897 N.1     
  31 H31           -0.8951    -0.2578     1.8608 H       
  32 H32           -1.5498    -0.9152    -2.3093 H       
  33 H33           -1.3731     3.0807    -0.7521 H       
  34 H34           -1.8297     1.0060    -3.8703 H       
  35 H35           -1.6388     3.6863    -2.3956 H       
  36 H36            1.1223    -0.8663    -0.4031 H       
  37 H37            3.3065    -1.9805    -0.6204 H       
  38 H38            1.4352    -5.7783    -0.0783 H       
  39 H39           -0.3972    -6.6070    -0.6663 H       
  40 H40           -0.1511    -6.4806     1.0921 H       
  41 H41           -2.0450    -7.9688     0.6539 H       
  42 H42           -2.6455    -6.4642     1.3913 H       
  43 H43           -2.4069    -8.4450    -1.6443 H       
  44 H44           -5.2004    -4.5632    -1.7694 H       
  45 H45           -3.8409    -8.0645    -3.5814 H       
@<TRIPOS>BOND
   1    1    2 ar
   2    1    7 1
   3    1    6 ar
   4    2    3 ar
   5    2   31 1
   6    3    4 ar
   7    3   10 1
   8    4    5 ar
   9    4   32 1
  10    5    6 ar
  11    5    8 1
  12    6   33 1
  13    8    9 2
  14    8   34 1
  15    9   29 1
  16    9   35 1
  17   10   11 1
  18   11   12 ar
  19   11   16 ar
  20   12   13 ar
  21   12   36 1
  22   13   14 ar
  23   13   37 1
  24   14   15 ar
  25   14   28 1
  26   15   16 ar
  27   15   38 1
  28   16   17 1
  29   17   18 1
  30   18   19 1
  31   18   39 1
  32   18   40 1
  33   19   20 1
  34   19   41 1
  35   19   42 1
  36   20   21 1
  37   20   22 am
  38   21   25 2
  39   21   43 1
  40   22   23 am
  41   22   27 2
  42   23   24 am
  43   23   44 1
  44   24   25 1
  45   24   26 2
  46   25   45 1
  47   29   30 3

#	End of record

