#	Name: ASD01912175
#	Creating user name:	WinNT
#	Creation time:	15. 06. 2019 19:59

#	Modifying user name:	WinNT
#	Modification time:	15. 06. 2019 19:59

#	Program:	/corina/corina34_cracker 3.40 0067  02.08.2006

@<TRIPOS>MOLECULE
ASD01912175
  39   42    0    0    0
SMALL
NO_CHARGES


@<TRIPOS>ATOM
   1 C1            -0.0169     1.3932     0.0097 C.ar    
   2 C2             0.0021    -0.0041     0.0020 C.ar    
   3 C3            -1.2261    -0.7403     0.0093 C.1     
   4 C4            -2.2331    -1.3439     0.0153 C.1     
   5 C5            -3.4613    -2.0802     0.0226 C.ar    
   6 C6            -3.4601    -3.4815     0.0151 C.ar    
   7 N7            -4.6147    -4.1224     0.0221 N.ar    
   8 C8            -5.7615    -3.4590     0.0362 C.ar    
   9 N9            -5.8060    -2.1349     0.0437 N.ar    
  10 C10           -4.6965    -1.4187     0.0433 C.ar    
  11 N11           -6.9520    -4.1727     0.0427 N.am    
  12 C12            1.2254    -0.6794    -0.0133 C.ar    
  13 C13            2.4042     0.0364    -0.0207 C.ar    
  14 C14            2.3776     1.4200    -0.0130 C.ar    
  15 C15            1.1700     2.0956     0.0021 C.ar    
  16 C16           -8.3010    -3.5822     0.0582 C.3     
  17 C17           -7.0568    -5.5092     0.0302 C.2     
  18 N18           -8.3226    -5.9553     0.0405 N.am    
  19 C19           -9.2275    -4.8054     0.0596 C.3     
  20 C20           -8.7313    -7.3621     0.0300 C.3     
  21 O21           -6.0929    -6.2497     0.0113 O.2     
  22 C22          -10.5349    -4.8163     0.8397 C.3     
  23 C23          -10.5518    -4.8041    -0.6917 C.3     
  24 H24           -0.9586     1.9218     0.0170 H       
  25 H25           -2.5292    -4.0289     0.0033 H       
  26 H26           -4.7405    -0.3396     0.0495 H       
  27 H27            1.2477    -1.7591    -0.0189 H       
  28 H28            3.3505    -0.4841    -0.0322 H       
  29 H29            3.3039     1.9752    -0.0189 H       
  30 H30            1.1570     3.1755     0.0077 H       
  31 H31           -8.4493    -2.9873     0.9594 H       
  32 H32           -8.4654    -2.9772    -0.8335 H       
  33 H33           -7.8458    -7.9976     0.0130 H       
  34 H34           -9.3158    -7.5774     0.9245 H       
  35 H35           -9.3363    -7.5582    -0.8552 H       
  36 H36          -10.8157    -5.7436     1.3391 H       
  37 H37          -10.8223    -3.8992     1.3539 H       
  38 H38          -10.8502    -3.8789    -1.1847 H       
  39 H39          -10.8436    -5.7234    -1.1995 H       
@<TRIPOS>BOND
   1    1    2 ar
   2    1   15 ar
   3    1   24 1
   4    2    3 1
   5    2   12 ar
   6    3    4 3
   7    4    5 1
   8    5    6 ar
   9    5   10 ar
  10    6    7 ar
  11    6   25 1
  12    7    8 ar
  13    8    9 ar
  14    8   11 1
  15    9   10 ar
  16   10   26 1
  17   11   16 1
  18   11   17 am
  19   12   13 ar
  20   12   27 1
  21   13   14 ar
  22   13   28 1
  23   14   15 ar
  24   14   29 1
  25   15   30 1
  26   16   19 1
  27   16   31 1
  28   16   32 1
  29   17   18 am
  30   17   21 2
  31   18   19 1
  32   18   20 1
  33   19   22 1
  34   19   23 1
  35   20   33 1
  36   20   34 1
  37   20   35 1
  38   22   23 1
  39   22   36 1
  40   22   37 1
  41   23   38 1
  42   23   39 1

#	End of record

