#	Name: ASD01815734
#	Creating user name:	WinNT
#	Creation time:	15. 06. 2019 19:33

#	Modifying user name:	WinNT
#	Modification time:	15. 06. 2019 19:33

#	Program:	/corina/corina34_cracker 3.40 0067  02.08.2006

@<TRIPOS>MOLECULE
ASD01815734
  55   59    0    0    0
SMALL
NO_CHARGES


@<TRIPOS>ATOM
   1 C1            -0.3333     1.0121     0.1859 C.ar    
   2 C2            -0.1829    -0.3706     0.1570 C.ar    
   3 C3             1.0535    -0.9407     0.0932 C.ar    
   4 C4             2.1952    -0.1255     0.0560 C.ar    
   5 C5             2.0382     1.2817     0.0856 C.ar    
   6 C6             0.7551     1.8341     0.1511 C.ar    
   7 C7             3.4876    -0.6869    -0.0106 C.ar    
   8 C8             4.5911     0.0976    -0.0471 C.ar    
   9 C9             4.4909     1.4973    -0.0202 C.ar    
  10 C10            3.2319     2.1214     0.0464 C.ar    
  11 C11            5.6804     2.3577    -0.0604 C.2     
  12 N12            5.4831     3.6962    -0.0309 N.am    
  13 C13            4.2277     4.2058     0.0337 C.2     
  14 N14            3.1601     3.4628     0.0698 N.2     
  15 O15            6.8012     1.8848    -0.1175 O.2     
  16 C16            6.6341     4.6017    -0.0687 C.3     
  17 C17            6.6475     5.4665     1.1955 C.3     
  18 C18            7.8069     6.4626     1.1108 C.3     
  19 O19            7.6654     7.2570    -0.0686 O.3     
  20 C20            7.6937     6.5067    -1.2844 C.3     
  21 C21            6.5297     5.5124    -1.2959 C.3     
  22 C22            3.6432    -2.1855    -0.0410 C.3     
  23 C23            3.5089    -2.6758    -1.4597 C.ar    
  24 C24            4.6280    -2.7780    -2.2752 C.ar    
  25 C25            4.4616    -3.2330    -3.5712 C.ar    
  26 C26            3.1863    -3.5707    -4.0113 C.ar    
  27 N27            2.1423    -3.4594    -3.2025 N.ar    
  28 C28            2.2723    -3.0333    -1.9600 C.ar    
  29 O29            6.8176     4.6321     2.3431 O.3     
  30 S30            2.9564    -4.1512    -5.6590 S.3     
  31 C31            4.6400    -4.5830    -6.1782 C.3     
  32 O32            0.8570    -3.8114    -3.6812 O.3     
  33 H33           -1.3238     1.4401     0.2320 H       
  34 H34           -1.0589    -1.0017     0.1858 H       
  35 H35            1.1543    -2.0158     0.0718 H       
  36 H36            0.6263     2.9061     0.1737 H       
  37 H37            5.5668    -0.3628    -0.0976 H       
  38 H38            4.1086     5.2790     0.0562 H       
  39 H39            7.5549     4.0209    -0.1229 H       
  40 H40            5.7058     6.0096     1.2753 H       
  41 H41            7.7955     7.1092     1.9882 H       
  42 H42            8.7510     5.9191     1.0719 H       
  43 H43            7.6007     7.1851    -2.1325 H       
  44 H44            8.6362     5.9637    -1.3547 H       
  45 H45            6.5752     4.9087    -2.2024 H       
  46 H46            5.5856     6.0564    -1.2665 H       
  47 H47            4.6256    -2.4568     0.3456 H       
  48 H48            2.8706    -2.6437     0.5764 H       
  49 H49            5.6064    -2.5081    -1.9062 H       
  50 H50            5.3107    -3.3242    -4.2324 H       
  51 H51            1.3992    -2.9551    -1.3291 H       
  52 H52            6.8353     5.1145     3.1810 H       
  53 H53            5.2733    -3.6971    -6.1307 H       
  54 H54            5.0389    -5.3508    -5.5154 H       
  55 H55            4.6194    -4.9605    -7.2005 H       
@<TRIPOS>BOND
   1    1    2 ar
   2    1    6 ar
   3    1   33 1
   4    2    3 ar
   5    2   34 1
   6    3    4 ar
   7    3   35 1
   8    4    5 ar
   9    4    7 ar
  10    5    6 ar
  11    5   10 ar
  12    6   36 1
  13    7    8 ar
  14    7   22 1
  15    8    9 ar
  16    8   37 1
  17    9   10 ar
  18    9   11 1
  19   10   14 1
  20   11   12 am
  21   11   15 2
  22   12   13 1
  23   12   16 1
  24   13   14 2
  25   13   38 1
  26   16   17 1
  27   16   21 1
  28   16   39 1
  29   17   18 1
  30   17   29 1
  31   17   40 1
  32   18   19 1
  33   18   41 1
  34   18   42 1
  35   19   20 1
  36   20   21 1
  37   20   43 1
  38   20   44 1
  39   21   45 1
  40   21   46 1
  41   22   23 1
  42   22   47 1
  43   22   48 1
  44   23   24 ar
  45   23   28 ar
  46   24   25 ar
  47   24   49 1
  48   25   26 ar
  49   25   50 1
  50   26   27 ar
  51   26   30 1
  52   27   28 ar
  53   27   32 1
  54   28   51 1
  55   29   52 1
  56   30   31 1
  57   31   53 1
  58   31   54 1
  59   31   55 1

#	End of record

