#	Name: ASD02039287
#	Creating user name:	WinNT
#	Creation time:	15. 06. 2019 20:18

#	Modifying user name:	WinNT
#	Modification time:	15. 06. 2019 20:18

#	Program:	/corina/corina34_cracker 3.40 0067  02.08.2006

@<TRIPOS>MOLECULE
ASD02039287
  45   47    0    0    0
SMALL
NO_CHARGES


@<TRIPOS>ATOM
   1 C1             0.1354     1.1844    -0.3174 C.ar    
   2 C2             0.5169    -0.0935     0.0487 C.ar    
   3 C3            -0.3878    -1.1377    -0.0197 C.ar    
   4 C4            -1.6791    -0.9084    -0.4555 C.ar    
   5 C5            -2.0684     0.3797    -0.8259 C.ar    
   6 C6            -1.1536     1.4271    -0.7485 C.ar    
   7 C7            -3.4532     0.6334    -1.2947 C.2     
   8 C8            -4.2182     1.6253    -0.8033 C.2     
   9 C9             1.1275     2.3162    -0.2398 C.3     
  10 N10            1.9438     2.3343    -1.4561 N.am    
  11 C11            1.4506     3.0089    -2.6594 C.3     
  12 C12            3.1487     1.7304    -1.4681 C.2     
  13 C13            3.6000     0.9635    -0.2939 C.2     
  14 C14            4.7328     0.2079    -0.2111 C.2     
  15 C15            2.4337     4.1079    -3.0672 C.3     
  16 N16            2.9674     0.8849     0.9047 N.2     
  17 C17            3.6600     0.1183     1.6966 C.2     
  18 N18            4.7630    -0.3195     1.0354 N.pl3   
  19 O19            3.8633     1.8185    -2.4483 O.2     
  20 C20            5.7988    -1.2043     1.5742 C.3     
  21 F21           -2.5622    -1.9286    -0.5230 F       
  22 C22            1.3205     1.9933    -3.7963 C.3     
  23 C23           -4.0667    -0.1324    -2.2844 C.2     
  24 C24           -5.3106     0.2323    -2.5848 C.2     
  25 S25           -5.7851     1.6103    -1.6014 S.3     
  26 H26            1.5253    -0.2770     0.3891 H       
  27 H27           -0.0844    -2.1336     0.2674 H       
  28 H28           -1.4495     2.4258    -1.0335 H       
  29 H29           -3.9163     2.3232    -0.0364 H       
  30 H30            0.5934     3.2618    -0.1466 H       
  31 H31            1.7717     2.1757     0.6281 H       
  32 H32            0.4757     3.4512    -2.4541 H       
  33 H33            5.4651     0.0586    -0.9908 H       
  34 H34            3.4244     3.6754    -3.2077 H       
  35 H35            2.1014     4.5651    -3.9992 H       
  36 H36            2.4758     4.8662    -2.2854 H       
  37 H37            3.4011    -0.1275     2.7159 H       
  38 H38            5.5306    -2.2417     1.3742 H       
  39 H39            6.7533    -0.9777     1.0991 H       
  40 H40            5.8832    -1.0518     2.6502 H       
  41 H41            0.5861     1.2352    -3.5242 H       
  42 H42            0.9972     2.5032    -4.7038 H       
  43 H43            2.2857     1.5179    -3.9710 H       
  44 H44           -3.5700    -0.9588    -2.7709 H       
  45 H45           -5.9353    -0.2457    -3.3249 H       
@<TRIPOS>BOND
   1    1    2 ar
   2    1    9 1
   3    1    6 ar
   4    2    3 ar
   5    2   26 1
   6    3    4 ar
   7    3   27 1
   8    4    5 ar
   9    4   21 1
  10    5    6 ar
  11    5    7 1
  12    6   28 1
  13    7   23 1
  14    7    8 2
  15    8   25 1
  16    8   29 1
  17    9   10 1
  18    9   30 1
  19    9   31 1
  20   10   11 1
  21   10   12 am
  22   11   22 1
  23   11   15 1
  24   11   32 1
  25   12   13 1
  26   12   19 2
  27   13   14 2
  28   13   16 1
  29   14   18 1
  30   14   33 1
  31   15   34 1
  32   15   35 1
  33   15   36 1
  34   16   17 2
  35   17   18 1
  36   17   37 1
  37   18   20 1
  38   20   38 1
  39   20   39 1
  40   20   40 1
  41   22   41 1
  42   22   42 1
  43   22   43 1
  44   23   24 2
  45   23   44 1
  46   24   25 1
  47   24   45 1

#	End of record

