#	Name: ASD03540174
#	Creating user name:	WinNT
#	Creation time:	15. 06. 2019 20:42

#	Modifying user name:	WinNT
#	Modification time:	15. 06. 2019 20:42

#	Program:	/corina/corina34_cracker 3.40 0067  02.08.2006

@<TRIPOS>MOLECULE
ASD03540174
  41   43    0    0    0
SMALL
NO_CHARGES


@<TRIPOS>ATOM
   1 C1            -0.3678     1.5280    -0.0557 C.2     
   2 N2            -0.5839     0.2049    -0.0664 N.am    
   3 C3             0.4643    -0.6959    -0.0080 C.2     
   4 C4             1.7663    -0.2140     0.0631 C.2     
   5 C5             1.9522     1.2546     0.0728 C.2     
   6 N6             0.8677     2.0494     0.0117 N.am    
   7 C7             2.7222    -1.2301     0.1165 C.2     
   8 C8             2.2104    -2.4731     0.0895 C.2     
   9 S9             0.4599    -2.4042    -0.0067 S.3     
  10 C10            2.9989    -3.7045     0.1332 C.2     
  11 O11            4.2123    -3.6478     0.1991 O.2     
  12 O12            2.3804    -4.9031     0.1003 O.3     
  13 O13            3.0682     1.7358     0.1338 O.2     
  14 O14           -1.3212     2.2802    -0.1140 O.2     
  15 C15           -1.9582    -0.2971    -0.1410 C.3     
  16 C16            1.0377     3.5045     0.0198 C.3     
  17 C17            1.0180     4.0046     1.4413 C.ar    
  18 C18            2.1975     4.0943     2.1575 C.ar    
  19 C19            2.1828     4.5523     3.4604 C.ar    
  20 C20            0.9819     4.9233     4.0509 C.ar    
  21 C21           -0.2008     4.8324     3.3288 C.ar    
  22 C22           -0.1788     4.3782     2.0247 C.ar    
  23 N23            0.9636     5.3873     5.3709 N.am    
  24 C24            1.9835     6.1352     5.8366 C.2     
  25 O25            2.9560     6.3354     5.1400 O.2     
  26 C26            1.9157     6.7226     7.2227 C.3     
  27 H27            3.7827    -1.0343     0.1746 H       
  28 H28            2.9837    -5.6581     0.1336 H       
  29 H29           -2.6506     0.5438    -0.1795 H       
  30 H30           -2.0748    -0.9051    -1.0382 H       
  31 H31           -2.1718    -0.9036     0.7392 H       
  32 H32            1.9907     3.7615    -0.4426 H       
  33 H33            0.2254     3.9683    -0.5398 H       
  34 H34            3.1311     3.8057     1.6977 H       
  35 H35            3.1043     4.6215     4.0195 H       
  36 H36           -1.1363     5.1202     3.7853 H       
  37 H37           -1.0977     4.3112     1.4612 H       
  38 H38            0.2168     5.1706     5.9508 H       
  39 H39            0.9745     6.4370     7.6926 H       
  40 H40            2.7478     6.3465     7.8178 H       
  41 H41            1.9755     7.8091     7.1602 H       
@<TRIPOS>BOND
   1    1    2 am
   2    1    6 am
   3    1   14 2
   4    2    3 1
   5    2   15 1
   6    3    4 2
   7    3    9 1
   8    4    5 1
   9    4    7 1
  10    5    6 am
  11    5   13 2
  12    6   16 1
  13    7    8 2
  14    7   27 1
  15    8    9 1
  16    8   10 1
  17   10   11 2
  18   10   12 1
  19   12   28 1
  20   15   29 1
  21   15   30 1
  22   15   31 1
  23   16   17 1
  24   16   32 1
  25   16   33 1
  26   17   18 ar
  27   17   22 ar
  28   18   19 ar
  29   18   34 1
  30   19   20 ar
  31   19   35 1
  32   20   21 ar
  33   20   23 1
  34   21   22 ar
  35   21   36 1
  36   22   37 1
  37   23   24 am
  38   23   38 1
  39   24   25 2
  40   24   26 1
  41   26   39 1
  42   26   40 1
  43   26   41 1

#	End of record

