#	Name: ASD05790014
#	Creating user name:	WinNT
#	Creation time:	15. 06. 2019 21:03

#	Modifying user name:	WinNT
#	Modification time:	15. 06. 2019 21:03

#	Program:	/corina/corina34_cracker 3.40 0067  02.08.2006

@<TRIPOS>MOLECULE
ASD05790014
  45   48    0    0    0
SMALL
NO_CHARGES


@<TRIPOS>ATOM
   1 C1            -0.1753     1.4747    -0.5693 C.2     
   2 C2            -0.1532    -0.0033    -0.5731 C.ar    
   3 C3             0.8978    -0.6870    -1.1870 C.ar    
   4 C4             0.9124    -2.0674    -1.1864 C.ar    
   5 C5            -0.1129    -2.7731    -0.5790 C.ar    
   6 C6            -1.1567    -2.1007     0.0306 C.ar    
   7 C7            -1.1800    -0.7211     0.0420 C.ar    
   8 O8             0.7229     2.0974    -1.1015 O.2     
   9 N9            -1.1942     2.1318     0.0193 N.am    
  10 C10           -1.1619     3.5242     0.1191 C.ar    
  11 C11           -2.3411     4.2545     0.0191 C.ar    
  12 C12           -2.3127     5.6283     0.1172 C.ar    
  13 C13           -1.0979     6.2876     0.3173 C.ar    
  14 C14            0.0846     5.5512     0.4174 C.ar    
  15 C15            0.0486     4.1772     0.3241 C.ar    
  16 O16           -2.1301     8.5756     0.3426 O.3     
  17 C17           -1.0637     7.7608     0.4224 C.2     
  18 N18            0.0116     8.4876     0.6097 N.2     
  19 C19           -0.3498     9.7870     0.6532 C.2     
  20 C20           -1.6951     9.8427     0.4854 C.2     
  21 C21           -2.5435    11.0880     0.4635 C.3     
  22 F22           -2.6404    11.5631    -0.8488 F       
  23 F23           -3.8219    10.7899     0.9471 F       
  24 F24           -1.9557    12.0670     1.2717 F       
  25 C25            0.5584    10.9440     0.8492 C.ar    
  26 C26            1.6699    10.8274     1.6815 C.ar    
  27 C27            2.5112    11.9067     1.8603 C.ar    
  28 C28            2.2528    13.1027     1.2151 C.ar    
  29 C29            1.1506    13.2242     0.3881 C.ar    
  30 C30            0.3061    12.1494     0.1972 C.ar    
  31 Cl31           2.2180    -2.9204    -1.9490 Cl      
  32 H32            1.6973    -0.1373    -1.6614 H       
  33 H33           -0.0976    -3.8530    -0.5817 H       
  34 H34           -1.9532    -2.6569     0.5025 H       
  35 H35           -1.9937    -0.1978     0.5221 H       
  36 H36           -1.9499     1.6376     0.3736 H       
  37 H37           -3.2802     3.7440    -0.1361 H       
  38 H38           -3.2288     6.1949     0.0390 H       
  39 H39            1.0256     6.0581     0.5722 H       
  40 H40            0.9621     3.6069     0.4058 H       
  41 H41            1.8724     9.8942     2.1861 H       
  42 H42            3.3728    11.8176     2.5054 H       
  43 H43            2.9137    13.9448     1.3578 H       
  44 H44            0.9531    14.1605    -0.1127 H       
  45 H45           -0.5513    12.2438    -0.4527 H       
@<TRIPOS>BOND
   1    1    2 1
   2    1    8 2
   3    1    9 am
   4    2    3 ar
   5    2    7 ar
   6    3    4 ar
   7    3   32 1
   8    4    5 ar
   9    4   31 1
  10    5    6 ar
  11    5   33 1
  12    6    7 ar
  13    6   34 1
  14    7   35 1
  15    9   10 1
  16    9   36 1
  17   10   11 ar
  18   10   15 ar
  19   11   12 ar
  20   11   37 1
  21   12   13 ar
  22   12   38 1
  23   13   14 ar
  24   13   17 1
  25   14   15 ar
  26   14   39 1
  27   15   40 1
  28   16   17 1
  29   16   20 1
  30   17   18 2
  31   18   19 1
  32   19   20 2
  33   19   25 1
  34   20   21 1
  35   21   22 1
  36   21   23 1
  37   21   24 1
  38   25   26 ar
  39   25   30 ar
  40   26   27 ar
  41   26   41 1
  42   27   28 ar
  43   27   42 1
  44   28   29 ar
  45   28   43 1
  46   29   30 ar
  47   29   44 1
  48   30   45 1

#	End of record

