#	Name: ASD01885858
#	Creating user name:	WinNT
#	Creation time:	15. 06. 2019 19:50

#	Modifying user name:	WinNT
#	Modification time:	15. 06. 2019 19:50

#	Program:	/corina/corina34_cracker 3.40 0067  02.08.2006

@<TRIPOS>MOLECULE
ASD01885858
  46   49    0    0    0
SMALL
NO_CHARGES


@<TRIPOS>ATOM
   1 C1            -2.4535     0.2517    -0.2033 C.ar    
   2 C2            -1.6751     1.4235    -0.0263 C.ar    
   3 C3            -2.3210     2.6858    -0.0267 C.ar    
   4 C4            -3.6980     2.7111    -0.2023 C.ar    
   5 C5            -4.3936     1.5092    -0.3706 C.ar    
   6 N6            -3.7745     0.3435    -0.3618 N.ar    
   7 C7            -1.8112    -1.0009    -0.2026 C.ar    
   8 C8            -0.4627    -1.0680    -0.0334 C.ar    
   9 C9             0.2979     0.0861     0.1405 C.ar    
  10 C10           -0.2892     1.3161     0.1454 C.ar    
  11 C11           -1.5511     3.9376     0.1549 C.2     
  12 C12           -5.8642     1.5453    -0.5576 C.2     
  13 N13           -6.5510     0.3973    -0.7213 N.am    
  14 O14           -6.4500     2.6097    -0.5632 O.2     
  15 C15            0.2188    -2.4122    -0.0337 C.3     
  16 C16            0.5999    -2.7818    -1.4440 C.ar    
  17 C17            1.1573    -4.0168    -1.7175 C.ar    
  18 N18            1.4937    -4.3471    -2.9489 N.ar    
  19 C19            1.3143    -3.5220    -3.9619 C.ar    
  20 C20            0.7624    -2.2705    -3.7650 C.ar    
  21 C21            0.3907    -1.8898    -2.4844 C.ar    
  22 C22           -0.6109     4.1984     1.1732 C.2     
  23 N23           -0.1470     5.4064     0.9962 N.2     
  24 N24           -0.7652     5.9613    -0.1307 N.pl3   
  25 C25           -1.6172     5.0497    -0.6373 C.2     
  26 C26           -0.5227     7.3019    -0.6696 C.3     
  27 C27            1.3835    -4.9968    -0.5953 C.3     
  28 F28            0.1563    -5.3278    -0.0107 F       
  29 F29            1.9864    -6.1536    -1.1008 F       
  30 F30            2.2179    -4.4188     0.3675 F       
  31 H31           -4.2283     3.6520    -0.2085 H       
  32 H32           -2.3865    -1.9052    -0.3355 H       
  33 H33            1.3667     0.0051     0.2734 H       
  34 H34            0.3113     2.2035     0.2805 H       
  35 H35           -6.0834    -0.4526    -0.7167 H       
  36 H36           -7.5130     0.4208    -0.8436 H       
  37 H37            1.1153    -2.3651     0.5845 H       
  38 H38           -0.4606    -3.1640     0.3680 H       
  39 H39            1.6023    -3.8278    -4.9569 H       
  40 H40            0.6186    -1.5990    -4.5985 H       
  41 H41           -0.0430    -0.9180    -2.3006 H       
  42 H42           -0.3250     3.5183     1.9619 H       
  43 H43           -2.2434     5.1764    -1.5080 H       
  44 H44            0.2861     7.2594    -1.3990 H       
  45 H45           -1.4285     7.6687    -1.1524 H       
  46 H46           -0.2454     7.9749     0.1417 H       
@<TRIPOS>BOND
   1    1    7 ar
   2    1    2 ar
   3    1    6 ar
   4    2    3 ar
   5    2   10 ar
   6    3    4 ar
   7    3   11 1
   8    4    5 ar
   9    4   31 1
  10    5    6 ar
  11    5   12 1
  12    7    8 ar
  13    7   32 1
  14    8    9 ar
  15    8   15 1
  16    9   10 ar
  17    9   33 1
  18   10   34 1
  19   11   22 1
  20   11   25 2
  21   12   13 am
  22   12   14 2
  23   13   35 1
  24   13   36 1
  25   15   16 1
  26   15   37 1
  27   15   38 1
  28   16   17 ar
  29   16   21 ar
  30   17   18 ar
  31   17   27 1
  32   18   19 ar
  33   19   20 ar
  34   19   39 1
  35   20   21 ar
  36   20   40 1
  37   21   41 1
  38   22   23 2
  39   22   42 1
  40   23   24 1
  41   24   25 1
  42   24   26 1
  43   25   43 1
  44   26   44 1
  45   26   45 1
  46   26   46 1
  47   27   28 1
  48   27   29 1
  49   27   30 1

#	End of record

