#	Name: ASD08070668
#	Creating user name:	WinNT
#	Creation time:	15. 06. 2019 21:15

#	Modifying user name:	WinNT
#	Modification time:	15. 06. 2019 21:15

#	Program:	/corina/corina34_cracker 3.40 0067  02.08.2006

@<TRIPOS>MOLECULE
ASD08070668
  48   48    0    0    0
SMALL
NO_CHARGES


@<TRIPOS>ATOM
   1 C1            -0.0178     1.4584     0.0101 C.2     
   2 C2             0.0021    -0.0041     0.0020 C.2     
   3 C3             1.1800    -0.6630    -0.0128 C.2     
   4 O4             1.0280     2.0812     0.0034 O.2     
   5 N5            -1.1940     2.1163     0.0192 N.am    
   6 C6            -1.2139     3.5811     0.0273 C.3     
   7 C7            -1.1019     4.1006    -1.4075 C.3     
   8 C8             0.2628     3.7175    -1.9835 C.3     
   9 C9             0.3277     4.1266    -3.4564 C.3     
  10 C10           -2.5251     4.0700     0.6458 C.3     
  11 C11           -2.5800     3.6564     2.1178 C.3     
  12 C12           -3.8913     4.1452     2.7363 C.3     
  13 C13            1.3654     4.4379    -1.2050 C.3     
  14 C14            1.1999    -2.1328    -0.0209 C.ar    
  15 C15            2.4201    -2.8185    -0.0362 C.ar    
  16 C16            2.4333    -4.1950    -0.0432 C.ar    
  17 C17            1.2375    -4.9041    -0.0351 C.ar    
  18 C18            0.0230    -4.2279    -0.0199 C.ar    
  19 C19           -0.0011    -2.8515    -0.0074 C.ar    
  20 O20            1.2559    -6.2613    -0.0426 O.3     
  21 C21           -0.0083    -6.9273    -0.0336 C.3     
  22 H22           -0.9258    -0.5567     0.0079 H       
  23 H23            2.1079    -0.1103    -0.0187 H       
  24 H24           -2.0274     1.6199     0.0205 H       
  25 H25           -0.3743     3.9527     0.6148 H       
  26 H26           -1.8904     3.6586    -2.0165 H       
  27 H27           -1.2058     5.1856    -1.4102 H       
  28 H28            0.4032     2.6399    -1.8993 H       
  29 H29            0.1873     5.2043    -3.5407 H       
  30 H30            1.2999     3.8537    -3.8668 H       
  31 H31           -0.4579     3.6134    -4.0110 H       
  32 H32           -2.5792     5.1561     0.5713 H       
  33 H33           -3.3659     3.6269     0.1122 H       
  34 H34           -2.5259     2.5703     2.1923 H       
  35 H35           -1.7392     4.0995     2.6514 H       
  36 H36           -4.7321     3.7021     2.2027 H       
  37 H37           -3.9304     3.8505     3.7850 H       
  38 H38           -3.9454     5.2313     2.6618 H       
  39 H39            2.3376     4.1649    -1.6154 H       
  40 H40            1.2251     5.5155    -1.2893 H       
  41 H41            1.3192     4.1464    -0.1558 H       
  42 H42            3.3496    -2.2686    -0.0428 H       
  43 H43            3.3742    -4.7251    -0.0554 H       
  44 H44           -0.9032    -4.7833    -0.0137 H       
  45 H45           -0.9451    -2.3271     0.0086 H       
  46 H46           -0.5604    -6.6468     0.8635 H       
  47 H47           -0.5781    -6.6373    -0.9164 H       
  48 H48            0.1491    -8.0059    -0.0409 H       
@<TRIPOS>BOND
   1    1    2 1
   2    1    4 2
   3    1    5 am
   4    2    3 2
   5    2   22 1
   6    3   14 1
   7    3   23 1
   8    5    6 1
   9    5   24 1
  10    6    7 1
  11    6   10 1
  12    6   25 1
  13    7    8 1
  14    7   26 1
  15    7   27 1
  16    8    9 1
  17    8   13 1
  18    8   28 1
  19    9   29 1
  20    9   30 1
  21    9   31 1
  22   10   11 1
  23   10   32 1
  24   10   33 1
  25   11   12 1
  26   11   34 1
  27   11   35 1
  28   12   36 1
  29   12   37 1
  30   12   38 1
  31   13   39 1
  32   13   40 1
  33   13   41 1
  34   14   15 ar
  35   14   19 ar
  36   15   16 ar
  37   15   42 1
  38   16   17 ar
  39   16   43 1
  40   17   18 ar
  41   17   20 1
  42   18   19 ar
  43   18   44 1
  44   19   45 1
  45   20   21 1
  46   21   46 1
  47   21   47 1
  48   21   48 1

#	End of record

