#	Name: ASD01810052
#	Creating user name:	WinNT
#	Creation time:	15. 06. 2019 19:23

#	Modifying user name:	WinNT
#	Modification time:	15. 06. 2019 19:23

#	Program:	/corina/corina34_cracker 3.40 0067  02.08.2006

@<TRIPOS>MOLECULE
ASD01810052
  59   63    0    0    0
SMALL
NO_CHARGES


@<TRIPOS>ATOM
   1 C1            -0.0167     1.3808     0.0096 C.ar    
   2 C2             0.0021    -0.0041     0.0020 C.ar    
   3 C3             1.2055    -0.6843    -0.0126 C.ar    
   4 C4             2.3976     0.0230    -0.0202 C.ar    
   5 C5             2.3781     1.4195    -0.0130 C.ar    
   6 C6             1.1668     2.0933     0.0022 C.ar    
   7 N7             3.7365    -0.3607    -0.0351 N.am    
   8 C8             4.4965     0.7506    -0.0368 C.2     
   9 N9             3.7063     1.8406    -0.0237 N.am    
  10 C10            4.1647     3.2320    -0.0219 C.3     
  11 C11            5.0223     3.4866     1.2208 C.3     
  12 C12            5.5481     4.9234     1.1862 C.3     
  13 N13            6.3453     5.1250    -0.0305 N.3     
  14 C14            5.5308     4.9323    -1.2370 C.3     
  15 C15            5.0045     3.4958    -1.2747 C.3     
  16 O16            5.7132     0.7674    -0.0485 O.2     
  17 C17            6.9805     6.4496    -0.0301 C.3     
  18 C18            7.8998     6.5765    -1.2480 C.3     
  19 C19            8.5113     7.9792    -1.2755 C.3     
  20 N20            7.4394     8.9806    -1.3425 N.3     
  21 C21            6.5714     8.9092    -0.1601 C.3     
  22 C22            5.9020     7.5343    -0.0993 C.3     
  23 C23            7.9909    10.3318    -1.5098 C.3     
  24 C24            6.8743    11.2954    -1.8193 C.ar    
  25 Cl25          -1.4913    -0.8891     0.0115 Cl      
  26 C26            6.2149    11.9424    -0.7910 C.ar    
  27 C27            5.1906    12.8263    -1.0749 C.ar    
  28 C28            4.8261    13.0634    -2.3871 C.ar    
  29 C29            5.4862    12.4171    -3.4154 C.ar    
  30 C30            6.5134    11.5365    -3.1317 C.ar    
  31 H31           -0.9605     1.9058     0.0169 H       
  32 H32            1.2169    -1.7642    -0.0178 H       
  33 H33            1.1483     3.1731     0.0074 H       
  34 H34            4.0653    -1.2732    -0.0424 H       
  35 H35            3.3029     3.8994    -0.0127 H       
  36 H36            4.4177     3.3419     2.1161 H       
  37 H37            5.8621     2.7919     1.2319 H       
  38 H38            4.7079     5.6178     1.1890 H       
  39 H39            6.1708     5.1035     2.0624 H       
  40 H40            4.6907     5.6266    -1.2228 H       
  41 H41            6.1410     5.1188    -2.1208 H       
  42 H42            5.8441     2.8012    -1.3029 H       
  43 H43            4.3872     3.3576    -2.1624 H       
  44 H44            7.5648     6.5731     0.8817 H       
  45 H45            8.6952     5.8340    -1.1826 H       
  46 H46            7.3227     6.4132    -2.1582 H       
  47 H47            9.0995     8.1367    -0.3715 H       
  48 H48            9.1553     8.0775    -2.1494 H       
  49 H49            7.1687     9.0624     0.7387 H       
  50 H50            5.8064     9.6830    -0.2239 H       
  51 H51            5.2935     7.3861    -0.9914 H       
  52 H52            5.2700     7.4761     0.7868 H       
  53 H53            8.4898    10.6370    -0.5900 H       
  54 H54            8.7089    10.3321    -2.3300 H       
  55 H55            6.4996    11.7571     0.2341 H       
  56 H56            4.6749    13.3312    -0.2715 H       
  57 H57            4.0254    13.7534    -2.6088 H       
  58 H58            5.2012    12.6021    -4.4406 H       
  59 H59            7.0291    11.0315    -3.9351 H       
@<TRIPOS>BOND
   1    1    2 ar
   2    1    6 ar
   3    1   31 1
   4    2    3 ar
   5    2   25 1
   6    3    4 ar
   7    3   32 1
   8    4    5 ar
   9    4    7 1
  10    5    6 ar
  11    5    9 1
  12    6   33 1
  13    7    8 am
  14    7   34 1
  15    8    9 am
  16    8   16 2
  17    9   10 1
  18   10   11 1
  19   10   15 1
  20   10   35 1
  21   11   12 1
  22   11   36 1
  23   11   37 1
  24   12   13 1
  25   12   38 1
  26   12   39 1
  27   13   14 1
  28   13   17 1
  29   14   15 1
  30   14   40 1
  31   14   41 1
  32   15   42 1
  33   15   43 1
  34   17   18 1
  35   17   22 1
  36   17   44 1
  37   18   19 1
  38   18   45 1
  39   18   46 1
  40   19   20 1
  41   19   47 1
  42   19   48 1
  43   20   21 1
  44   20   23 1
  45   21   22 1
  46   21   49 1
  47   21   50 1
  48   22   51 1
  49   22   52 1
  50   23   24 1
  51   23   53 1
  52   23   54 1
  53   24   26 ar
  54   24   30 ar
  55   26   27 ar
  56   26   55 1
  57   27   28 ar
  58   27   56 1
  59   28   29 ar
  60   28   57 1
  61   29   30 ar
  62   29   58 1
  63   30   59 1

#	End of record

