#	Name: ASD03090978
#	Creating user name:	WinNT
#	Creation time:	15. 06. 2019 20:29

#	Modifying user name:	WinNT
#	Modification time:	15. 06. 2019 20:29

#	Program:	/corina/corina34_cracker 3.40 0067  02.08.2006

@<TRIPOS>MOLECULE
ASD03090978
  49   52    0    0    0
SMALL
NO_CHARGES


@<TRIPOS>ATOM
   1 N1            -0.0176     1.2479     0.0913 N.am    
   2 C2             0.0063    -0.0994     0.0621 C.2     
   3 O3            -1.0377    -0.7280     0.0828 O.2     
   4 N4             1.1745    -0.7458     0.0104 N.2     
   5 S5            -0.1560    -3.1400     0.0025 S.3     
   6 C6             1.1981    -2.0763    -0.0185 C.2     
   7 N7             2.2941    -2.8745    -0.0711 N.pl3   
   8 C8             2.0770    -4.2185    -0.0928 C.2     
   9 C9             0.8138    -4.6217    -0.0606 C.2     
  10 O10            7.4028    -0.7429    -0.2032 O.3     
  11 C11            8.4751    -1.5774     0.2479 C.3     
  12 C12            8.3059    -2.9633    -0.3894 C.3     
  13 O13            7.0407    -3.4935     0.0204 O.3     
  14 C14            5.9716    -2.6547    -0.0571 C.ar    
  15 C15            6.1519    -1.2803    -0.1668 C.ar    
  16 C16            4.6905    -3.1828    -0.0263 C.ar    
  17 C17            3.5901    -2.3402    -0.1020 C.ar    
  18 C18            3.7732    -0.9685    -0.2087 C.ar    
  19 C19            5.0500    -0.4416    -0.2410 C.ar    
  20 F20            8.3404    -2.8490    -1.7833 F       
  21 F21            9.3338    -3.8092     0.0409 F       
  22 F22            9.6995    -1.0247    -0.1427 F       
  23 F23            8.4308    -1.6905     1.6416 F       
  24 C24            0.3092    -6.0417    -0.0751 C.3     
  25 C25            1.2372     2.0035     0.0664 C.3     
  26 C26           -1.2987     1.9568     0.1419 C.3     
  27 C27           -1.7572     2.0640     1.5734 C.ar    
  28 C28           -3.0002     2.5978     1.8636 C.ar    
  29 C29           -3.4205     2.6960     3.1775 C.ar    
  30 C30           -2.5986     2.2609     4.2003 C.ar    
  31 C31           -1.3567     1.7281     3.9100 C.ar    
  32 C32           -0.9386     1.6241     2.5962 C.ar    
  33 Br33          -4.1238     3.1934     0.4641 Br      
  34 H34            2.8946    -4.9230    -0.1344 H       
  35 H35            4.5485    -4.2501     0.0574 H       
  36 H36            2.9171    -0.3126    -0.2666 H       
  37 H37            5.1902     0.6261    -0.3238 H       
  38 H38           -0.7802    -6.0405    -0.0407 H       
  39 H39            0.6433    -6.5367    -0.9870 H       
  40 H40            0.6996    -6.5749     0.7917 H       
  41 H41            1.5620     2.1347    -0.9658 H       
  42 H42            1.0826     2.9799     0.5256 H       
  43 H43            2.0008     1.4581     0.6210 H       
  44 H44           -1.1778     2.9559    -0.2767 H       
  45 H45           -2.0410     1.4076    -0.4373 H       
  46 H46           -4.3906     3.1129     3.4045 H       
  47 H47           -2.9267     2.3375     5.2264 H       
  48 H48           -0.7145     1.3889     4.7093 H       
  49 H49            0.0299     1.2033     2.3695 H       
@<TRIPOS>BOND
   1    1    2 am
   2    1   25 1
   3    1   26 1
   4    2    3 2
   5    2    4 1
   6    4    6 2
   7    5    6 1
   8    5    9 1
   9    6    7 1
  10    7    8 1
  11    7   17 1
  12    8    9 2
  13    8   34 1
  14    9   24 1
  15   10   11 1
  16   10   15 1
  17   11   12 1
  18   11   22 1
  19   11   23 1
  20   12   13 1
  21   12   20 1
  22   12   21 1
  23   13   14 1
  24   14   15 ar
  25   14   16 ar
  26   15   19 ar
  27   16   17 ar
  28   16   35 1
  29   17   18 ar
  30   18   19 ar
  31   18   36 1
  32   19   37 1
  33   24   38 1
  34   24   39 1
  35   24   40 1
  36   25   41 1
  37   25   42 1
  38   25   43 1
  39   26   27 1
  40   26   44 1
  41   26   45 1
  42   27   28 ar
  43   27   32 ar
  44   28   29 ar
  45   28   33 1
  46   29   30 ar
  47   29   46 1
  48   30   31 ar
  49   30   47 1
  50   31   32 ar
  51   31   48 1
  52   32   49 1

#	End of record

