#	Name: ASD01908363
#	Creating user name:	WinNT
#	Creation time:	15. 06. 2019 19:55

#	Modifying user name:	WinNT
#	Modification time:	15. 06. 2019 19:55

#	Program:	/corina/corina34_cracker 3.40 0067  02.08.2006

@<TRIPOS>MOLECULE
ASD01908363
  45   48    0    0    0
SMALL
NO_CHARGES


@<TRIPOS>ATOM
   1 C1            -0.0145     1.4094     0.0542 C.ar    
   2 C2             0.0002     0.0274     0.0477 C.ar    
   3 C3             1.2045    -0.6452     0.0281 C.ar    
   4 C4             2.4044     0.0560     0.0148 C.ar    
   5 C5             2.3899     1.4322     0.0212 C.ar    
   6 C6             1.1753     2.1076     0.0410 C.ar    
   7 S7             4.0585    -0.5558    -0.0114 S.o2    
   8 N8             5.0536     0.7724    -0.0194 N.am    
   9 S9             4.0306     2.0791     0.0010 S.o2    
  10 C10            6.4524     0.7872    -0.0384 C.ar    
  11 C11            7.1340     1.9974    -0.0427 C.ar    
  12 C12            7.1596    -0.4081    -0.0473 C.ar    
  13 C13            8.5399    -0.3933    -0.0661 C.ar    
  14 C14            9.2213     0.8167    -0.0757 C.ar    
  15 C15            8.5144     2.0119    -0.0615 C.ar    
  16 N16           10.6219     0.8316    -0.0943 N.am    
  17 C17           11.2766     1.7971    -0.7693 C.2     
  18 O18           10.6552     2.5972    -1.4413 O.2     
  19 C19           12.7503     1.8830    -0.6926 C.ar    
  20 C20           13.4667     0.9660     0.0779 C.ar    
  21 C21           14.8421     1.0519     0.1452 C.ar    
  22 C22           15.5110     2.0445    -0.5485 C.ar    
  23 C23           14.8067     2.9571    -1.3140 C.ar    
  24 C24           13.4320     2.8784    -1.3952 C.ar    
  25 O25            4.1900     2.7357    -1.2492 O.2     
  26 O26            4.2253     2.7243     1.2520 O.2     
  27 O27            4.2669    -1.2085     1.2336 O.2     
  28 O28            4.2316    -1.1972    -1.2675 O.2     
  29 C29           15.5437     4.0356    -2.0655 C.3     
  30 F30           16.9177     3.9089    -1.8349 F       
  31 F31           15.2870     3.9084    -3.4349 F       
  32 F32           15.1106     5.2906    -1.6244 F       
  33 H33           -0.9545     1.9411     0.0651 H       
  34 H34           -0.9283    -0.5242     0.0584 H       
  35 H35            1.2149    -1.7252     0.0234 H       
  36 H36            1.1628     3.1875     0.0457 H       
  37 H37            6.5843     2.9269    -0.0316 H       
  38 H38            6.6297    -1.3491    -0.0391 H       
  39 H39            9.0899    -1.3228    -0.0730 H       
  40 H40            9.0444     2.9529    -0.0693 H       
  41 H41           11.1205     0.1471     0.3786 H       
  42 H42           12.9456     0.1911     0.6205 H       
  43 H43           15.3978     0.3430     0.7411 H       
  44 H44           16.5877     2.1075    -0.4922 H       
  45 H45           12.8835     3.5911    -1.9932 H       
@<TRIPOS>BOND
   1    1    2 ar
   2    1    6 ar
   3    1   33 1
   4    2    3 ar
   5    2   34 1
   6    3    4 ar
   7    3   35 1
   8    4    5 ar
   9    4    7 1
  10    5    6 ar
  11    5    9 1
  12    6   36 1
  13    7    8 am
  14    7   27 2
  15    7   28 2
  16    8    9 am
  17    8   10 1
  18    9   25 2
  19    9   26 2
  20   10   11 ar
  21   10   12 ar
  22   11   15 ar
  23   11   37 1
  24   12   13 ar
  25   12   38 1
  26   13   14 ar
  27   13   39 1
  28   14   15 ar
  29   14   16 1
  30   15   40 1
  31   16   17 am
  32   16   41 1
  33   17   18 2
  34   17   19 1
  35   19   20 ar
  36   19   24 ar
  37   20   21 ar
  38   20   42 1
  39   21   22 ar
  40   21   43 1
  41   22   23 ar
  42   22   44 1
  43   23   24 ar
  44   23   29 1
  45   24   45 1
  46   29   30 1
  47   29   31 1
  48   29   32 1

#	End of record

