#	Name: ASD01150765
#	Creating user name:	WinNT
#	Creation time:	15. 06. 2019 19:05

#	Modifying user name:	WinNT
#	Modification time:	15. 06. 2019 19:05

#	Program:	/corina/corina34_cracker 3.40 0067  02.08.2006

@<TRIPOS>MOLECULE
ASD01150765
  48   51    0    0    0
SMALL
NO_CHARGES


@<TRIPOS>ATOM
   1 C1            -0.0868     1.6256    -0.0733 C.2     
   2 C2            -0.6688     1.3513    -1.4360 C.3     
   3 N3             3.5407     2.2700     0.2683 N.ar    
   4 C4             2.3961     1.6485     0.1583 C.ar    
   5 C5             1.1818     2.3508     0.0498 C.ar    
   6 C6             1.1997     3.7577     0.0603 C.ar    
   7 C7             2.4575     4.3995     0.1814 C.ar    
   8 C8             2.5580     5.7962     0.1990 C.ar    
   9 C9             3.7995     6.3864     0.3179 C.ar    
  10 C10            4.9516     5.5997     0.4198 C.ar    
  11 C11            4.8754     4.2412     0.4042 C.ar    
  12 C12            3.6274     3.6074     0.2854 C.ar    
  13 C13            2.3768     0.1417     0.1458 C.3     
  14 N14            3.9066     7.7786     0.3361 N.3     
  15 C15            2.7716     8.3865     1.0546 C.3     
  16 C16            3.3592     9.2476     2.1924 C.3     
  17 C17            4.8039     9.5329     1.7044 C.3     
  18 C18            5.1614     8.2049     0.9915 C.3     
  19 O19            2.6246    10.4650     2.3356 O.3     
  20 C20           -0.0488     4.5386    -0.0514 C.ar    
  21 C21           -1.0121     4.4690     0.9582 C.ar    
  22 C22           -2.1753     5.2004     0.8488 C.ar    
  23 C23           -2.3904     6.0041    -0.2605 C.ar    
  24 C24           -1.4379     6.0770    -1.2655 C.ar    
  25 C25           -0.2686     5.3542    -1.1643 C.ar    
  26 F26           -3.5325     6.7184    -0.3627 F       
  27 F27           -1.8194     0.5669    -1.3024 F       
  28 F28           -0.9990     2.5620    -2.0544 F       
  29 F29            0.2718     0.6705    -2.2164 F       
  30 O30           -0.6702     1.2507     0.9222 O.2     
  31 H31            1.6706     6.4066     0.1199 H       
  32 H32            5.9158     6.0776     0.5119 H       
  33 H33            5.7755     3.6495     0.4832 H       
  34 H34            2.3619    -0.2300     1.1704 H       
  35 H35            1.4874    -0.2059    -0.3797 H       
  36 H36            3.2671    -0.2289    -0.3622 H       
  37 H37            2.1954     9.0138     0.3745 H       
  38 H38            2.1354     7.6056     1.4712 H       
  39 H39            3.3718     8.6913     3.1296 H       
  40 H40            4.8219    10.3687     1.0049 H       
  41 H41            5.4715     9.7161     2.5464 H       
  42 H42            5.4825     7.4586     1.7182 H       
  43 H43            5.9405     8.3713     0.2476 H       
  44 H44            2.9537    11.0426     3.0379 H       
  45 H45           -0.8459     3.8431     1.8225 H       
  46 H46           -2.9208     5.1471     1.6284 H       
  47 H47           -1.6108     6.7044    -2.1274 H       
  48 H48            0.4744     5.4150    -1.9457 H       
@<TRIPOS>BOND
   1    1    2 1
   2    1    5 1
   3    1   30 2
   4    2   27 1
   5    2   28 1
   6    2   29 1
   7    3    4 ar
   8    3   12 ar
   9    4    5 ar
  10    4   13 1
  11    5    6 ar
  12    6    7 ar
  13    6   20 1
  14    7    8 ar
  15    7   12 ar
  16    8    9 ar
  17    8   31 1
  18    9   10 ar
  19    9   14 1
  20   10   11 ar
  21   10   32 1
  22   11   12 ar
  23   11   33 1
  24   13   34 1
  25   13   35 1
  26   13   36 1
  27   14   15 1
  28   14   18 1
  29   15   16 1
  30   15   37 1
  31   15   38 1
  32   16   17 1
  33   16   19 1
  34   16   39 1
  35   17   18 1
  36   17   40 1
  37   17   41 1
  38   18   42 1
  39   18   43 1
  40   19   44 1
  41   20   21 ar
  42   20   25 ar
  43   21   22 ar
  44   21   45 1
  45   22   23 ar
  46   22   46 1
  47   23   24 ar
  48   23   26 1
  49   24   25 ar
  50   24   47 1
  51   25   48 1

#	End of record

