#	Name: ASD05430573
#	Creating user name:	WinNT
#	Creation time:	15. 06. 2019 21:00

#	Modifying user name:	WinNT
#	Modification time:	15. 06. 2019 21:00

#	Program:	/corina/corina34_cracker 3.40 0067  02.08.2006

@<TRIPOS>MOLECULE
ASD05430573
  34   35    0    0    0
SMALL
NO_CHARGES


@<TRIPOS>ATOM
   1 N1            -0.0158     1.3152     0.0093 N.ar    
   2 C2             0.0021    -0.0041     0.0020 C.ar    
   3 C3             1.1004     2.0231     0.0024 C.ar    
   4 C4             2.3235     1.3978    -0.0127 C.ar    
   5 C5             2.3939     0.0066    -0.0287 C.ar    
   6 C6             1.1918    -0.7016    -0.0172 C.ar    
   7 C7             1.0307     3.5285     0.0107 C.3     
   8 C8             1.1933    -2.2085    -0.0258 C.3     
   9 C9             0.4887    -2.7264     1.2296 C.3     
  10 C10            0.4566    -2.7122    -1.2686 C.3     
  11 C11            0.2750     4.0109    -1.2290 C.3     
  12 C12            0.2984     3.9982     1.2693 C.3     
  13 C13            3.7484     1.9115    -0.0067 C.3     
  14 C14            4.5459     0.6406     0.3722 C.3     
  15 O15            3.6802    -0.4224    -0.0636 O.3     
  16 H16           -0.9313    -0.5473     0.0117 H       
  17 H17            2.0405     3.9390     0.0034 H       
  18 H18            2.2213    -2.5708    -0.0411 H       
  19 H19           -0.5392    -2.3642     1.2449 H       
  20 H20            0.4898    -3.8164     1.2234 H       
  21 H21            1.0136    -2.3676     2.1150 H       
  22 H22            0.9586    -2.3432    -2.1630 H       
  23 H23            0.4577    -3.8022    -1.2748 H       
  24 H24           -0.5713    -2.3500    -1.2533 H       
  25 H25           -0.7347     3.6004    -1.2217 H       
  26 H26            0.2246     5.0997    -1.2230 H       
  27 H27            0.7967     3.6763    -2.1257 H       
  28 H28            0.8368     3.6545     2.1525 H       
  29 H29            0.2480     5.0870     1.2753 H       
  30 H30           -0.7113     3.5877     1.2767 H       
  31 H31            4.0365     2.2721    -0.9942 H       
  32 H32            3.8782     2.6910     0.7441 H       
  33 H33            5.4959     0.6078    -0.1611 H       
  34 H34            4.7049     0.5916     1.4494 H       
@<TRIPOS>BOND
   1    1    2 ar
   2    1    3 ar
   3    2    6 ar
   4    2   16 1
   5    3    4 ar
   6    3    7 1
   7    4    5 ar
   8    4   13 1
   9    5    6 ar
  10    5   15 1
  11    6    8 1
  12    7   11 1
  13    7   12 1
  14    7   17 1
  15    8    9 1
  16    8   10 1
  17    8   18 1
  18    9   19 1
  19    9   20 1
  20    9   21 1
  21   10   22 1
  22   10   23 1
  23   10   24 1
  24   11   25 1
  25   11   26 1
  26   11   27 1
  27   12   28 1
  28   12   29 1
  29   12   30 1
  30   13   14 1
  31   13   31 1
  32   13   32 1
  33   14   15 1
  34   14   33 1
  35   14   34 1

#	End of record

