#	Name: ASD01418012
#	Creating user name:	WinNT
#	Creation time:	15. 06. 2019 19:20

#	Modifying user name:	WinNT
#	Modification time:	15. 06. 2019 19:20

#	Program:	/corina/corina34_cracker 3.40 0067  02.08.2006

@<TRIPOS>MOLECULE
ASD01418012
  35   36    0    0    0
SMALL
NO_CHARGES


@<TRIPOS>ATOM
   1 C1            -0.0187     1.5258     0.0104 C.3     
   2 C2             0.0021    -0.0041     0.0020 C.3     
   3 C3             0.6310    -0.5127     1.3007 C.3     
   4 N4             1.3595     2.0342     0.0000 N.4     
   5 C5            -0.7475     2.0250    -1.2105 C.ar    
   6 C6            -2.1264     2.1381    -1.1942 C.ar    
   7 C7            -2.7969     2.5988    -2.3200 C.ar    
   8 C8            -2.0809     2.9441    -3.4577 C.ar    
   9 C9            -0.7031     2.8288    -3.4676 C.ar    
  10 C10           -0.0374     2.3749    -2.3438 C.ar    
  11 O11           -4.1518     2.7108    -2.3076 O.3     
  12 C12           -4.6908     3.8892    -1.8987 C.ar    
  13 C13           -6.0687     4.0502    -1.8694 C.ar    
  14 C14           -6.6141     5.2490    -1.4529 C.ar    
  15 C15           -5.7882     6.2881    -1.0653 C.ar    
  16 C16           -4.4148     6.1304    -1.0941 C.ar    
  17 C17           -3.8643     4.9317    -1.5043 C.ar    
  18 F18           -2.8197     1.8005    -0.0850 F       
  19 Cl19          -2.9146     3.5199    -4.8673 Cl      
  20 H20           -0.5289     1.8773     0.9072 H       
  21 H21           -1.0175    -0.3808    -0.0798 H       
  22 H22            0.5883    -0.3548    -0.8473 H       
  23 H23            0.6458    -1.6026     1.2947 H       
  24 H24            1.6506    -0.1360     1.3826 H       
  25 H25            0.0448    -0.1620     2.1500 H       
  26 H26            1.3458     3.0431     0.0055 H       
  27 H27            1.8475     1.7000     0.8174 H       
  28 H28            1.8318     1.7088    -0.8301 H       
  29 H29           -0.1457     3.0975    -4.3528 H       
  30 H30            1.0392     2.2897    -2.3529 H       
  31 H31           -6.7142     3.2390    -2.1723 H       
  32 H32           -7.6864     5.3750    -1.4302 H       
  33 H33           -6.2166     7.2246    -0.7400 H       
  34 H34           -3.7719     6.9438    -0.7915 H       
  35 H35           -2.7917     4.8075    -1.5220 H       
@<TRIPOS>BOND
   1    1    2 1
   2    1    4 1
   3    1    5 1
   4    1   20 1
   5    2    3 1
   6    2   21 1
   7    2   22 1
   8    3   23 1
   9    3   24 1
  10    3   25 1
  11    4   26 1
  12    4   27 1
  13    4   28 1
  14    5    6 ar
  15    5   10 ar
  16    6    7 ar
  17    6   18 1
  18    7    8 ar
  19    7   11 1
  20    8    9 ar
  21    8   19 1
  22    9   10 ar
  23    9   29 1
  24   10   30 1
  25   11   12 1
  26   12   13 ar
  27   12   17 ar
  28   13   14 ar
  29   13   31 1
  30   14   15 ar
  31   14   32 1
  32   15   16 ar
  33   15   33 1
  34   16   17 ar
  35   16   34 1
  36   17   35 1

#	End of record

