#	Name: ASD08178456
#	Creating user name:	WinNT
#	Creation time:	15. 06. 2019 21:19

#	Modifying user name:	WinNT
#	Modification time:	15. 06. 2019 21:19

#	Program:	/corina/corina34_cracker 3.40 0067  02.08.2006

@<TRIPOS>MOLECULE
ASD08178456
  50   52    0    0    0
SMALL
NO_CHARGES


@<TRIPOS>ATOM
   1 O1             2.1677     3.8662     0.0115 O.2     
   2 C2             1.1256     3.2459     0.0121 C.2     
   3 N3             1.1435     1.8983     0.0013 N.am    
   4 C4            -0.1894     3.9818     0.0311 C.3     
   5 C5             2.3548     1.2181    -0.1191 C.ar    
   6 C6             2.3897    -0.1720    -0.0228 C.ar    
   7 N7             3.4765     1.8895    -0.3310 N.ar    
   8 N8             4.6114     1.3015    -0.4476 N.ar    
   9 C9             4.7374    -0.0082    -0.3646 C.ar    
  10 C10            3.6187    -0.8006    -0.1495 C.ar    
  11 C11            6.0955    -0.6452    -0.5094 C.3     
  12 C12            6.7277    -0.2035    -1.8308 C.3     
  13 C13            8.1065    -0.8502    -1.9777 C.3     
  14 C14            8.7388    -0.4085    -3.2992 C.3     
  15 C15           10.0968    -1.0455    -3.4439 C.2     
  16 N16           10.3475    -2.1861    -3.9995 N.2     
  17 N17           11.5465    -2.5746    -4.0375 N.2     
  18 C18           12.4501    -1.7972    -3.5127 C.2     
  19 S19           11.6283    -0.3638    -2.8920 S.3     
  20 N20           13.8131    -2.0478    -3.4570 N.pl3   
  21 C21            0.0663     5.4669     0.0470 C.ar    
  22 C22            0.1741     6.1613    -1.1421 C.ar    
  23 C23            0.4090     7.5287    -1.1268 C.ar    
  24 C24            0.5350     8.1948     0.0834 C.ar    
  25 C25            0.4263     7.4957     1.2701 C.ar    
  26 C26            0.1870     6.1342     1.2522 C.ar    
  27 O27            0.5160     8.2141    -2.2954 O.3     
  28 C28            0.7581     9.6194    -2.2034 C.3     
  29 F29            1.9616     9.8419    -1.5257 F       
  30 F30            0.8398    10.1637    -3.4896 F       
  31 F31           -0.2899    10.2285    -1.5050 F       
  32 H32            0.3138     1.4015     0.0774 H       
  33 H33           -0.7642     3.7216    -0.8577 H       
  34 H34           -0.7505     3.7001     0.9221 H       
  35 H35            1.4876    -0.7415     0.1456 H       
  36 H36            3.7036    -1.8749    -0.0785 H       
  37 H37            6.7322    -0.3356     0.3194 H       
  38 H38            5.9907    -1.7301    -0.5015 H       
  39 H39            6.0910    -0.5130    -2.6596 H       
  40 H40            6.8326     0.8814    -1.8387 H       
  41 H41            8.7432    -0.5407    -1.1490 H       
  42 H42            8.0017    -1.9351    -1.9698 H       
  43 H43            8.1021    -0.7181    -4.1279 H       
  44 H44            8.8436     0.6764    -3.3071 H       
  45 H45           14.1713    -2.8674    -3.8324 H       
  46 H46           14.4082    -1.4036    -3.0426 H       
  47 H47            0.0760     5.6403    -2.0830 H       
  48 H48            0.7183     9.2591     0.0979 H       
  49 H49            0.5243     8.0139     2.2126 H       
  50 H50            0.1024     5.5894     2.1809 H       
@<TRIPOS>BOND
   1    1    2 2
   2    2    3 am
   3    2    4 1
   4    3    5 1
   5    3   32 1
   6    4   21 1
   7    4   33 1
   8    4   34 1
   9    5    6 ar
  10    5    7 ar
  11    6   10 ar
  12    6   35 1
  13    7    8 ar
  14    8    9 ar
  15    9   10 ar
  16    9   11 1
  17   10   36 1
  18   11   12 1
  19   11   37 1
  20   11   38 1
  21   12   13 1
  22   12   39 1
  23   12   40 1
  24   13   14 1
  25   13   41 1
  26   13   42 1
  27   14   15 1
  28   14   43 1
  29   14   44 1
  30   15   16 2
  31   15   19 1
  32   16   17 1
  33   17   18 2
  34   18   19 1
  35   18   20 1
  36   20   45 1
  37   20   46 1
  38   21   22 ar
  39   21   26 ar
  40   22   23 ar
  41   22   47 1
  42   23   24 ar
  43   23   27 1
  44   24   25 ar
  45   24   48 1
  46   25   26 ar
  47   25   49 1
  48   26   50 1
  49   27   28 1
  50   28   29 1
  51   28   30 1
  52   28   31 1

#	End of record

