#	Name: ASD03331404
#	Creating user name:	WinNT
#	Creation time:	15. 06. 2019 20:39

#	Modifying user name:	WinNT
#	Modification time:	15. 06. 2019 20:39

#	Program:	/corina/corina34_cracker 3.40 0067  02.08.2006

@<TRIPOS>MOLECULE
ASD03331404
  68   72    0    0    0
SMALL
NO_CHARGES


@<TRIPOS>ATOM
   1 N1            -0.5847     1.8545    -1.1435 N.am    
   2 C2            -0.3486     0.4249    -1.3870 C.3     
   3 C3            -0.7944     0.0874    -2.8132 C.3     
   4 C4            -0.0848     1.0185    -3.7990 C.3     
   5 C5            -0.4722     2.4690    -3.5023 C.3     
   6 C6            -0.0228     2.8335    -2.0839 C.3     
   7 C7             1.4068     0.8580    -3.6563 C.2     
   8 O8             2.1053     1.8299    -3.4605 O.2     
   9 N9             1.9646    -0.3656    -3.7464 N.am    
  10 C10           -0.4951     0.6669    -5.2058 C.ar    
  11 C11           -0.0506     1.4329    -6.2672 C.ar    
  12 C12           -0.4270     1.1104    -7.5577 C.ar    
  13 C13           -1.2475     0.0217    -7.7867 C.ar    
  14 C14           -1.6913    -0.7447    -6.7253 C.ar    
  15 C15           -1.3114    -0.4248    -5.4353 C.ar    
  16 C16           -1.3078     2.2598    -0.0808 C.2     
  17 O17           -1.8519     1.4392     0.6332 O.2     
  18 N18           -2.2969     5.6697     0.7390 N.pl3   
  19 C19           -2.6009     4.3633     0.5416 C.2     
  20 C20           -1.4392     3.6965     0.2159 C.2     
  21 C21           -0.3938     4.6563     0.2204 C.2     
  22 C22           -0.9481     5.8526     0.5435 C.2     
  23 C23           -3.9712     3.7470     0.6581 C.3     
  24 C24           -4.6736     3.8051    -0.6999 C.3     
  25 O25           -5.9730     3.2207    -0.5894 O.3     
  26 C26           -0.2235     7.1360     0.6651 C.ar    
  27 C27            0.9382     7.2150     1.4365 C.ar    
  28 C28            1.6101     8.4160     1.5455 C.ar    
  29 C29            1.1342     9.5402     0.8920 C.ar    
  30 C30           -0.0171     9.4674     0.1264 C.ar    
  31 C31           -0.6943     8.2714     0.0051 C.ar    
  32 Cl32           1.9843    11.0471     1.0336 Cl      
  33 Cl33           1.5354     5.8064     2.2568 Cl      
  34 C34           -3.2121     6.6743     1.0817 C.ar    
  35 C35           -3.1581     7.2653     2.3369 C.ar    
  36 C36           -4.0608     8.2554     2.6721 C.ar    
  37 C37           -5.0184     8.6585     1.7581 C.ar    
  38 C38           -5.0745     8.0707     0.5065 C.ar    
  39 C39           -4.1705     7.0842     0.1646 C.ar    
  40 Cl40          -6.1516     9.9033     2.1824 Cl      
  41 H41            0.7132     0.2056    -1.2745 H       
  42 H42           -0.9235    -0.1669    -0.6747 H       
  43 H43           -0.5364    -0.9471    -3.0398 H       
  44 H44           -1.8728     0.2210    -2.8985 H       
  45 H45            0.0151     3.1297    -4.2194 H       
  46 H46           -1.5537     2.5802    -3.5811 H       
  47 H47           -0.3827     3.8310    -1.8315 H       
  48 H48            1.0656     2.8107    -2.0282 H       
  49 H49            1.4163    -1.1331    -3.9728 H       
  50 H50            2.9143    -0.4788    -3.5848 H       
  51 H51            0.5905     2.2834    -6.0883 H       
  52 H52           -0.0802     1.7092    -8.3869 H       
  53 H53           -1.5421    -0.2298    -8.7948 H       
  54 H54           -2.3326    -1.5950    -6.9042 H       
  55 H55           -1.6551    -1.0258    -4.6064 H       
  56 H56            0.6483     4.4698     0.0065 H       
  57 H57           -3.8766     2.7081     0.9741 H       
  58 H58           -4.5564     4.2987     1.3938 H       
  59 H59           -4.7682     4.8441    -1.0159 H       
  60 H60           -4.0884     3.2534    -1.4356 H       
  61 H61           -6.4768     3.2232    -1.4148 H       
  62 H62            2.5083     8.4790     2.1419 H       
  63 H63           -0.3834    10.3478    -0.3807 H       
  64 H64           -1.5896     8.2152    -0.5964 H       
  65 H65           -2.4111     6.9508     3.0507 H       
  66 H66           -4.0194     8.7152     3.6485 H       
  67 H67           -5.8231     8.3867    -0.2050 H       
  68 H68           -4.2116     6.6291    -0.8140 H       
@<TRIPOS>BOND
   1    1    2 1
   2    1    6 1
   3    1   16 am
   4    2    3 1
   5    2   41 1
   6    2   42 1
   7    3    4 1
   8    3   43 1
   9    3   44 1
  10    4    5 1
  11    4    7 1
  12    4   10 1
  13    5    6 1
  14    5   45 1
  15    5   46 1
  16    6   47 1
  17    6   48 1
  18    7    8 2
  19    7    9 am
  20    9   49 1
  21    9   50 1
  22   10   11 ar
  23   10   15 ar
  24   11   12 ar
  25   11   51 1
  26   12   13 ar
  27   12   52 1
  28   13   14 ar
  29   13   53 1
  30   14   15 ar
  31   14   54 1
  32   15   55 1
  33   16   17 2
  34   16   20 1
  35   18   19 1
  36   18   22 1
  37   18   34 1
  38   19   20 2
  39   19   23 1
  40   20   21 1
  41   21   22 2
  42   21   56 1
  43   22   26 1
  44   23   24 1
  45   23   57 1
  46   23   58 1
  47   24   25 1
  48   24   59 1
  49   24   60 1
  50   25   61 1
  51   26   27 ar
  52   26   31 ar
  53   27   28 ar
  54   27   33 1
  55   28   29 ar
  56   28   62 1
  57   29   30 ar
  58   29   32 1
  59   30   31 ar
  60   30   63 1
  61   31   64 1
  62   34   35 ar
  63   34   39 ar
  64   35   36 ar
  65   35   65 1
  66   36   37 ar
  67   36   66 1
  68   37   38 ar
  69   37   40 1
  70   38   39 ar
  71   38   67 1
  72   39   68 1

#	End of record

