#	Name: ASD03331672
#	Creating user name:	WinNT
#	Creation time:	15. 06. 2019 20:39

#	Modifying user name:	WinNT
#	Modification time:	15. 06. 2019 20:39

#	Program:	/corina/corina34_cracker 3.40 0067  02.08.2006

@<TRIPOS>MOLECULE
ASD03331672
  51   53    0    0    0
SMALL
NO_CHARGES


@<TRIPOS>ATOM
   1 C1             0.2790     1.4938     0.1340 C.3     
   2 N2             0.2008     0.0273     0.0800 N.3     
   3 C3             0.5972    -0.4794    -1.2463 C.3     
   4 C4             1.9130     0.1571    -1.6130 C.2     
   5 N5             2.4251     1.2531    -0.9795 N.pl3   
   6 C6             1.7476     1.9374     0.1252 C.3     
   7 C7             2.7978    -0.1995    -2.5765 C.2     
   8 N8             3.8350     0.6679    -2.5258 N.2     
   9 C9             3.6177     1.5440    -1.5666 C.2     
  10 C10            4.5132     2.6507    -1.1932 C.2     
  11 C11            2.6555    -1.3296    -3.5113 C.2     
  12 O12            1.6716    -2.0426    -3.4580 O.2     
  13 N13            3.6156    -1.5731    -4.4253 N.am    
  14 C14            3.4741    -2.6967    -5.3547 C.3     
  15 C15            2.6415    -2.2588    -6.5613 C.3     
  16 C16            4.8377    -3.1392    -5.8192 C.2     
  17 N17            5.0381    -4.4163    -6.2005 N.am    
  18 O18            5.7547    -2.3461    -5.8499 O.2     
  19 C19            6.3853    -4.8734    -6.5506 C.3     
  20 C20            3.2756    -1.0192    -7.1956 C.3     
  21 C21            2.5976    -3.3916    -7.5888 C.3     
  22 C22            1.2188    -1.9277    -6.1062 C.3     
  23 C23            5.5471     3.1298    -1.9398 C.2     
  24 O24            4.4498     3.3706    -0.0556 O.3     
  25 C25            5.4237     4.2943    -0.0576 C.2     
  26 C26            6.1256     4.1806    -1.2034 C.2     
  27 H27           -0.2321     1.9159    -0.7313 H       
  28 H28           -0.2012     1.8489     1.0458 H       
  29 H29            0.7590    -0.3916     0.8088 H       
  30 H30            0.7099    -1.5629    -1.2083 H       
  31 H31           -0.1595    -0.2125    -1.9841 H       
  32 H32            1.8052     3.0162    -0.0197 H       
  33 H33            2.2193     1.6669     1.0699 H       
  34 H34            4.4002    -1.0045    -4.4678 H       
  35 H35            2.9756    -3.5247    -4.8505 H       
  36 H36            4.2905    -5.0328    -6.2430 H       
  37 H37            6.3503    -5.9260    -6.8314 H       
  38 H38            6.7619    -4.2863    -7.3882 H       
  39 H39            7.0459    -4.7479    -5.6928 H       
  40 H40            4.2892    -1.2551    -7.5198 H       
  41 H41            2.6825    -0.7072    -8.0552 H       
  42 H42            3.3068    -0.2122    -6.4636 H       
  43 H43            2.2420    -4.3035    -7.1093 H       
  44 H44            1.9220    -3.1203    -8.4000 H       
  45 H45            3.5977    -3.5579    -7.9892 H       
  46 H46            1.2501    -1.1207    -5.3742 H       
  47 H47            0.6257    -1.6157    -6.9658 H       
  48 H48            0.7671    -2.8108    -5.6543 H       
  49 H49            5.8618     2.7726    -2.9092 H       
  50 H50            5.6121     5.0119     0.7272 H       
  51 H51            6.9724     4.7819    -1.4997 H       
@<TRIPOS>BOND
   1    1    2 1
   2    1    6 1
   3    1   27 1
   4    1   28 1
   5    2    3 1
   6    2   29 1
   7    3    4 1
   8    3   30 1
   9    3   31 1
  10    4    5 1
  11    4    7 2
  12    5    6 1
  13    5    9 1
  14    6   32 1
  15    6   33 1
  16    7    8 1
  17    7   11 1
  18    8    9 2
  19    9   10 1
  20   10   24 1
  21   10   23 2
  22   11   12 2
  23   11   13 am
  24   13   14 1
  25   13   34 1
  26   14   15 1
  27   14   16 1
  28   14   35 1
  29   15   20 1
  30   15   21 1
  31   15   22 1
  32   16   17 am
  33   16   18 2
  34   17   19 1
  35   17   36 1
  36   19   37 1
  37   19   38 1
  38   19   39 1
  39   20   40 1
  40   20   41 1
  41   20   42 1
  42   21   43 1
  43   21   44 1
  44   21   45 1
  45   22   46 1
  46   22   47 1
  47   22   48 1
  48   23   26 1
  49   23   49 1
  50   24   25 1
  51   25   26 2
  52   25   50 1
  53   26   51 1

#	End of record

