#	Name: ASD01811602
#	Creating user name:	WinNT
#	Creation time:	15. 06. 2019 19:27

#	Modifying user name:	WinNT
#	Modification time:	15. 06. 2019 19:27

#	Program:	/corina/corina34_cracker 3.40 0067  02.08.2006

@<TRIPOS>MOLECULE
ASD01811602
  57   60    0    0    0
SMALL
NO_CHARGES


@<TRIPOS>ATOM
   1 C1            -0.5378     1.0690     0.8017 C.ar    
   2 C2            -0.3809     0.0053    -0.0784 C.ar    
   3 C3            -1.4290    -0.3867    -0.8902 C.ar    
   4 C4            -2.6380     0.2757    -0.8320 C.ar    
   5 C5            -2.8061     1.3454     0.0493 C.ar    
   6 C6            -1.7505     1.7372     0.8723 C.ar    
   7 C7            -4.1004     2.0574     0.1135 C.2     
   8 O8            -4.1236     3.2694     0.2018 O.2     
   9 N9            -5.2544     1.3623     0.0741 N.am    
  10 C10           -6.5459     2.0465     0.2254 C.3     
  11 C11           -7.3344     1.3683     1.3501 C.3     
  12 C12           -7.4471    -0.1296     1.0572 C.3     
  13 C13           -6.0481    -0.7481     1.0071 C.3     
  14 C14           -5.2453    -0.0930    -0.1271 C.3     
  15 C15           -8.2514    -0.7946     2.1443 C.ar    
  16 C16           -9.4241    -1.4566     1.8264 C.ar    
  17 C17           -7.8109    -0.7453     3.4550 C.ar    
  18 C18           -8.5420    -1.3522     4.4551 C.ar    
  19 C19           -9.7290    -2.0175     4.1420 C.ar    
  20 C20          -10.1650    -2.0680     2.8165 C.ar    
  21 C21          -10.4931    -2.6499     5.1750 C.1     
  22 N22          -11.0992    -3.1515     5.9945 N.1     
  23 N23            0.5265     1.4622     1.6211 N.am    
  24 C24            0.2885     2.1797     2.7370 C.2     
  25 C25            0.9365    -0.7232    -0.1485 C.3     
  26 C26            0.8320    -2.2192     0.1920 C.3     
  27 C27            1.8302    -2.4685    -0.9510 C.3     
  28 C28            1.3266    -1.1549    -1.5720 C.3     
  29 C29            1.4400     2.7100     3.5516 C.3     
  30 O30           -0.8524     2.3984     3.0855 O.2     
  31 H31           -1.3010    -1.2140    -1.5725 H       
  32 H32           -3.4542    -0.0331    -1.4683 H       
  33 H33           -1.8746     2.5640     1.5560 H       
  34 H34           -6.3774     3.0935     0.4772 H       
  35 H35           -7.1069     1.9784    -0.7067 H       
  36 H36           -6.8163     1.5156     2.2977 H       
  37 H37           -8.3319     1.8036     1.4088 H       
  38 H38           -7.9433    -0.2757     0.0977 H       
  39 H39           -5.5422    -0.5807     1.9580 H       
  40 H40           -6.1302    -1.8190     0.8217 H       
  41 H41           -5.7017    -0.3376    -1.0862 H       
  42 H42           -4.2182    -0.4573    -0.1053 H       
  43 H43           -9.7603    -1.4946     0.8007 H       
  44 H44           -6.8924    -0.2307     3.6957 H       
  45 H45           -8.1968    -1.3133     5.4777 H       
  46 H46          -11.0824    -2.5806     2.5675 H       
  47 H47            1.4354     1.2185     1.3859 H       
  48 H48            1.7340    -0.2081     0.3870 H       
  49 H49            1.2245    -2.4712     1.1772 H       
  50 H50           -0.1562    -2.6408     0.0084 H       
  51 H51            2.8730    -2.4310    -0.6359 H       
  52 H52            1.5989    -3.3506    -1.5480 H       
  53 H53            0.4736    -1.2856    -2.2379 H       
  54 H54            2.1183    -0.5477    -2.0109 H       
  55 H55            2.0454     3.3748     2.9353 H       
  56 H56            1.0548     3.2607     4.4098 H       
  57 H57            2.0529     1.8783     3.8990 H       
@<TRIPOS>BOND
   1    1    2 ar
   2    1   23 1
   3    1    6 ar
   4    2    3 ar
   5    2   25 1
   6    3    4 ar
   7    3   31 1
   8    4    5 ar
   9    4   32 1
  10    5    6 ar
  11    5    7 1
  12    6   33 1
  13    7    8 2
  14    7    9 am
  15    9   10 1
  16    9   14 1
  17   10   11 1
  18   10   34 1
  19   10   35 1
  20   11   12 1
  21   11   36 1
  22   11   37 1
  23   12   13 1
  24   12   15 1
  25   12   38 1
  26   13   14 1
  27   13   39 1
  28   13   40 1
  29   14   41 1
  30   14   42 1
  31   15   16 ar
  32   15   17 ar
  33   16   20 ar
  34   16   43 1
  35   17   18 ar
  36   17   44 1
  37   18   19 ar
  38   18   45 1
  39   19   20 ar
  40   19   21 1
  41   20   46 1
  42   21   22 3
  43   23   24 am
  44   23   47 1
  45   24   29 1
  46   24   30 2
  47   25   26 1
  48   25   28 1
  49   25   48 1
  50   26   27 1
  51   26   49 1
  52   26   50 1
  53   27   28 1
  54   27   51 1
  55   27   52 1
  56   28   53 1
  57   28   54 1
  58   29   55 1
  59   29   56 1
  60   29   57 1

#	End of record

