#	Name: ASD01912219
#	Creating user name:	WinNT
#	Creation time:	15. 06. 2019 19:59

#	Modifying user name:	WinNT
#	Modification time:	15. 06. 2019 19:59

#	Program:	/corina/corina34_cracker 3.40 0067  02.08.2006

@<TRIPOS>MOLECULE
ASD01912219
  46   48    0    0    0
SMALL
NO_CHARGES


@<TRIPOS>ATOM
   1 C1             0.0923     1.6276     1.4088 C.ar    
   2 C2             0.1119     0.2551     1.5804 C.ar    
   3 C3             1.3255    -0.4187     1.5544 C.ar    
   4 C4             2.4830     0.3119     1.3561 C.ar    
   5 C5             2.3911     1.6965     1.1896 C.ar    
   6 N6             1.2074     2.3024     1.2214 N.ar    
   7 C7             3.5796     2.4682     0.9832 C.1     
   8 C8             4.5540     3.1009     0.8140 C.1     
   9 C9             5.7424     3.8726     0.6077 C.2     
  10 N10            5.4040     7.5488    -0.9500 N.am    
  11 C11            6.7044     6.8718    -1.0347 C.3     
  12 C12            6.9040     6.0259     0.2293 C.3     
  13 C13            5.6602     5.1928     0.4484 C.2     
  14 C14            4.3207     5.8955     0.4829 C.3     
  15 C15            4.1859     6.7447    -0.7875 C.3     
  16 C16            5.3297     8.8930    -1.0150 C.2     
  17 C17            4.0106     9.5592    -1.0598 C.ar    
  18 C18            3.7734    10.6971    -0.2869 C.ar    
  19 C19            2.5405    11.3139    -0.3333 C.ar    
  20 C20            1.5399    10.8069    -1.1438 C.ar    
  21 C21            1.7683     9.6793    -1.9119 C.ar    
  22 C22            2.9991     9.0564    -1.8794 C.ar    
  23 O23            6.3473     9.5575    -1.0367 O.2     
  24 N24            2.2869    12.5203     0.4859 N.pl3   
  25 O25            3.1665    12.9674     1.2000 O.2     
  26 O26            1.1987    13.0659     0.4459 O.2     
  27 C27           -1.2245     2.3601     1.4305 C.3     
  28 H28           -0.8091    -0.2878     1.7337 H       
  29 H29            1.3649    -1.4899     1.6865 H       
  30 H30            3.4440    -0.1803     1.3306 H       
  31 H31            6.7054     3.3845     0.5811 H       
  32 H32            6.7239     6.2266    -1.9130 H       
  33 H33            7.4990     7.6145    -1.1066 H       
  34 H34            7.7660     5.3713     0.1005 H       
  35 H35            7.0637     6.6794     1.0868 H       
  36 H36            3.5197     5.1570     0.5173 H       
  37 H37            4.2660     6.5382     1.3615 H       
  38 H38            3.3224     7.4037    -0.6965 H       
  39 H39            4.0608     6.0922    -1.6516 H       
  40 H40            4.5533    11.0936     0.3463 H       
  41 H41            0.5763    11.2936    -1.1766 H       
  42 H42            0.9831     9.2885    -2.5421 H       
  43 H43            3.1779     8.1792    -2.4835 H       
  44 H44           -1.4540     2.6650     2.4515 H       
  45 H45           -1.1600     3.2424     0.7937 H       
  46 H46           -2.0121     1.7028     1.0620 H       
@<TRIPOS>BOND
   1    1    2 ar
   2    1    6 ar
   3    1   27 1
   4    2    3 ar
   5    2   28 1
   6    3    4 ar
   7    3   29 1
   8    4    5 ar
   9    4   30 1
  10    5    6 ar
  11    5    7 1
  12    7    8 3
  13    8    9 1
  14    9   13 2
  15    9   31 1
  16   10   11 1
  17   10   15 1
  18   10   16 am
  19   11   12 1
  20   11   32 1
  21   11   33 1
  22   12   13 1
  23   12   34 1
  24   12   35 1
  25   13   14 1
  26   14   15 1
  27   14   36 1
  28   14   37 1
  29   15   38 1
  30   15   39 1
  31   16   17 1
  32   16   23 2
  33   17   18 ar
  34   17   22 ar
  35   18   19 ar
  36   18   40 1
  37   19   20 ar
  38   19   24 1
  39   20   21 ar
  40   20   41 1
  41   21   22 ar
  42   21   42 1
  43   22   43 1
  44   24   25 2
  45   24   26 2
  46   27   44 1
  47   27   45 1
  48   27   46 1

#	End of record

