#	Name: ASD01908148
#	Creating user name:	WinNT
#	Creation time:	15. 06. 2019 19:54

#	Modifying user name:	WinNT
#	Modification time:	15. 06. 2019 19:54

#	Program:	/corina/corina34_cracker 3.40 0067  02.08.2006

@<TRIPOS>MOLECULE
ASD01908148
  38   40    0    0    0
SMALL
NO_CHARGES


@<TRIPOS>ATOM
   1 N1            -0.0169     1.3953     0.0097 N.pl3   
   2 N2             0.0021    -0.0041     0.0020 N.2     
   3 C3             1.2431    -0.4094    -0.0120 C.2     
   4 C4             2.0771     0.7299    -0.0139 C.2     
   5 C5             1.2562     1.8377    -0.0001 C.2     
   6 C6             3.5090     0.7342    -0.0275 C.1     
   7 C7             4.6830     0.7377    -0.0387 C.1     
   8 C8             6.1149     0.7419    -0.0523 C.ar    
   9 C9             6.8133     1.9521    -0.0525 C.ar    
  10 C10            8.1925     1.9484    -0.0652 C.ar    
  11 C11            8.8844     0.7502    -0.0782 C.ar    
  12 C12            8.1995    -0.4522    -0.0786 C.ar    
  13 C13            6.8204    -0.4641    -0.0597 C.ar    
  14 C14           -1.2165     2.2362     0.0202 C.3     
  15 C15           -2.1016     1.8632    -1.1410 C.ar    
  16 C16           -3.0668     0.8852    -0.9868 C.ar    
  17 C17           -3.8794     0.5414    -2.0498 C.ar    
  18 C18           -3.7264     1.1784    -3.2727 C.ar    
  19 C19           -2.7573     2.1593    -3.4249 C.ar    
  20 C20           -1.9509     2.5034    -2.3572 C.ar    
  21 O21           -4.5243     0.8416    -4.3200 O.3     
  22 C22           -4.3105     1.5388    -5.5490 C.3     
  23 H23            1.5742    -1.4373    -0.0201 H       
  24 H24            1.5746     2.8696     0.0021 H       
  25 H25            6.2746     2.8881    -0.0431 H       
  26 H26            8.7337     2.8830    -0.0654 H       
  27 H27            9.9644     0.7534    -0.0885 H       
  28 H28            8.7461    -1.3836    -0.0895 H       
  29 H29            6.2872    -1.4033    -0.0552 H       
  30 H30           -1.7585     2.0844     0.9536 H       
  31 H31           -0.9268     3.2835    -0.0656 H       
  32 H32           -3.1852     0.3894    -0.0347 H       
  33 H33           -4.6329    -0.2228    -1.9289 H       
  34 H34           -2.6362     2.6565    -4.3759 H       
  35 H35           -1.1995     3.2703    -2.4738 H       
  36 H36           -5.0116     1.1748    -6.2999 H       
  37 H37           -4.4667     2.6062    -5.3931 H       
  38 H38           -3.2899     1.3671    -5.8912 H       
@<TRIPOS>BOND
   1    1    2 1
   2    1    5 1
   3    1   14 1
   4    2    3 2
   5    3    4 1
   6    3   23 1
   7    4    5 2
   8    4    6 1
   9    5   24 1
  10    6    7 3
  11    7    8 1
  12    8    9 ar
  13    8   13 ar
  14    9   10 ar
  15    9   25 1
  16   10   11 ar
  17   10   26 1
  18   11   12 ar
  19   11   27 1
  20   12   13 ar
  21   12   28 1
  22   13   29 1
  23   14   15 1
  24   14   30 1
  25   14   31 1
  26   15   16 ar
  27   15   20 ar
  28   16   17 ar
  29   16   32 1
  30   17   18 ar
  31   17   33 1
  32   18   19 ar
  33   18   21 1
  34   19   20 ar
  35   19   34 1
  36   20   35 1
  37   21   22 1
  38   22   36 1
  39   22   37 1
  40   22   38 1

#	End of record

