#	Name: ASD03092962
#	Creating user name:	WinNT
#	Creation time:	15. 06. 2019 20:33

#	Modifying user name:	WinNT
#	Modification time:	15. 06. 2019 20:33

#	Program:	/corina/corina34_cracker 3.40 0067  02.08.2006

@<TRIPOS>MOLECULE
ASD03092962
  44   46    0    0    0
SMALL
NO_CHARGES


@<TRIPOS>ATOM
   1 F1             0.0429    -0.0065     0.0100 F       
   2 C2             0.0218     1.3443     0.0162 C.ar    
   3 C3            -1.1875     2.0182     0.0361 C.ar    
   4 C4            -1.2079     3.4000     0.0425 C.ar    
   5 C5            -0.0214     4.1094     0.0290 C.ar    
   6 C6            -0.0449     5.6162     0.0365 C.3     
   7 N7            -0.0330     6.0979     1.4200 N.pl3   
   8 C8            -0.0507     7.4560     1.6794 C.ar    
   9 N9             0.0291     8.3187     0.6782 N.ar    
  10 C10            0.0152     9.6217     0.8815 C.ar    
  11 C11           -0.0837    10.1474     2.1572 C.ar    
  12 C12           -0.1700     9.2925     3.2419 C.ar    
  13 C13           -0.1590     7.9134     3.0041 C.ar    
  14 C14           -0.2543     6.9581     4.1226 C.2     
  15 O15           -0.3511     5.7668     3.8982 O.2     
  16 N16           -0.2342     7.4049     5.3940 N.am    
  17 C17           -0.4175     6.5096     6.4530 C.ar    
  18 C18            0.0888     5.2182     6.3666 C.ar    
  19 C19           -0.0895     4.3293     7.4104 C.ar    
  20 C20           -0.7715     4.7180     8.5450 C.ar    
  21 C21           -1.2844     6.0136     8.6420 C.ar    
  22 C22           -1.0994     6.9122     7.5910 C.ar    
  23 C23           -1.9929     6.4197     9.8182 C.1     
  24 N24           -2.5551     6.7419    10.7514 N.1     
  25 C25           -0.9634     3.7448     9.6795 C.3     
  26 F26           -0.3669     2.5226     9.3513 F       
  27 F27           -0.3703     4.2567    10.8385 F       
  28 F28           -2.3310     3.5514     9.9018 F       
  29 C29            1.1867     3.4376     0.0092 C.ar    
  30 C30            1.2096     2.0558     0.0086 C.ar    
  31 H31           -2.1146     1.4642     0.0462 H       
  32 H32           -2.1511     3.9259     0.0576 H       
  33 H33            0.8319     5.9959    -0.4880 H       
  34 H34           -0.9476     5.9680    -0.4629 H       
  35 H35           -0.0127     5.4642     2.1541 H       
  36 H36            0.0828    10.2907     0.0364 H       
  37 H37           -0.0933    11.2171     2.3056 H       
  38 H38           -0.2476     9.6800     4.2470 H       
  39 H39           -0.0926     8.3474     5.5747 H       
  40 H40            0.6232     4.9079     5.4809 H       
  41 H41            0.3060     3.3270     7.3371 H       
  42 H42           -1.4898     7.9167     7.6618 H       
  43 H43            2.1130     3.9928    -0.0016 H       
  44 H44            2.1535     1.5311    -0.0023 H       
@<TRIPOS>BOND
   1    1    2 1
   2    2   30 ar
   3    2    3 ar
   4    3    4 ar
   5    3   31 1
   6    4    5 ar
   7    4   32 1
   8    5    6 1
   9    5   29 ar
  10    6    7 1
  11    6   33 1
  12    6   34 1
  13    7    8 1
  14    7   35 1
  15    8   13 ar
  16    8    9 ar
  17    9   10 ar
  18   10   11 ar
  19   10   36 1
  20   11   12 ar
  21   11   37 1
  22   12   13 ar
  23   12   38 1
  24   13   14 1
  25   14   15 2
  26   14   16 am
  27   16   17 1
  28   16   39 1
  29   17   22 ar
  30   17   18 ar
  31   18   19 ar
  32   18   40 1
  33   19   20 ar
  34   19   41 1
  35   20   21 ar
  36   20   25 1
  37   21   22 ar
  38   21   23 1
  39   22   42 1
  40   23   24 3
  41   25   26 1
  42   25   27 1
  43   25   28 1
  44   29   30 ar
  45   29   43 1
  46   30   44 1

#	End of record

