#	Name: ASD01912216
#	Creating user name:	WinNT
#	Creation time:	15. 06. 2019 19:59

#	Modifying user name:	WinNT
#	Modification time:	15. 06. 2019 19:59

#	Program:	/corina/corina34_cracker 3.40 0067  02.08.2006

@<TRIPOS>MOLECULE
ASD01912216
  42   43    0    0    0
SMALL
NO_CHARGES


@<TRIPOS>ATOM
   1 N1            -0.0180     1.4641     0.0130 N.am    
   2 C2             0.0017    -0.0043     0.0139 C.3     
   3 C3             0.7731    -0.4885    -1.2205 C.3     
   4 C4             2.0867     0.2592    -1.2872 C.2     
   5 C5             2.0572     1.7709    -1.2357 C.3     
   6 C6             1.2537     2.1985    -0.0010 C.3     
   7 C7            -1.1897     2.1301     0.0193 C.2     
   8 S8            -1.2035     3.8367     0.1542 S.2     
   9 N9            -2.3504     1.4526    -0.0806 N.am    
  10 C10            3.2413    -0.3978    -1.3882 C.2     
  11 C11            4.4746     0.3273    -1.4501 C.1     
  12 C12            5.4857     0.9218    -1.5008 C.1     
  13 C13            6.7190     1.6469    -1.5626 C.ar    
  14 C14            7.9278     0.9527    -1.6687 C.ar    
  15 C15            9.1096     1.6681    -1.7273 C.ar    
  16 C16            9.0492     3.0546    -1.6783 C.ar    
  17 C17            7.8194     3.6783    -1.5731 C.ar    
  18 N18            6.7061     2.9762    -1.5243 N.ar    
  19 C19            7.7517     5.1828    -1.5198 C.3     
  20 C20           -3.6260     2.1631     0.0393 C.3     
  21 C21           -4.7795     1.1692    -0.1106 C.3     
  22 H22            0.4956    -0.3626     0.9171 H       
  23 H23           -1.0196    -0.3835    -0.0215 H       
  24 H24            0.9636    -1.5585    -1.1377 H       
  25 H25            0.1904    -0.2875    -2.1195 H       
  26 H26            3.0745     2.1555    -1.1628 H       
  27 H27            1.5812     2.1595    -2.1360 H       
  28 H28            1.0567     3.2696    -0.0462 H       
  29 H29            1.8195     1.9667     0.9014 H       
  30 H30           -2.3413     0.4945    -0.2319 H       
  31 H31            3.2472    -1.4772    -1.4235 H       
  32 H32            7.9384    -0.1267    -1.7040 H       
  33 H33           10.0589     1.1596    -1.8090 H       
  34 H34            9.9552     3.6410    -1.7216 H       
  35 H35            7.6645     5.5787    -2.5316 H       
  36 H36            6.8839     5.4870    -0.9346 H       
  37 H37            8.6578     5.5710    -1.0545 H       
  38 H38           -3.6843     2.6427     1.0164 H       
  39 H39           -3.6949     2.9202    -0.7418 H       
  40 H40           -4.7212     0.6896    -1.0876 H       
  41 H41           -4.7105     0.4121     0.6705 H       
  42 H42           -5.7285     1.6978    -0.0214 H       
@<TRIPOS>BOND
   1    1    2 1
   2    1    6 1
   3    1    7 am
   4    2    3 1
   5    2   22 1
   6    2   23 1
   7    3    4 1
   8    3   24 1
   9    3   25 1
  10    4    5 1
  11    4   10 2
  12    5    6 1
  13    5   26 1
  14    5   27 1
  15    6   28 1
  16    6   29 1
  17    7    8 2
  18    7    9 am
  19    9   20 1
  20    9   30 1
  21   10   11 1
  22   10   31 1
  23   11   12 3
  24   12   13 1
  25   13   14 ar
  26   13   18 ar
  27   14   15 ar
  28   14   32 1
  29   15   16 ar
  30   15   33 1
  31   16   17 ar
  32   16   34 1
  33   17   18 ar
  34   17   19 1
  35   19   35 1
  36   19   36 1
  37   19   37 1
  38   20   21 1
  39   20   38 1
  40   20   39 1
  41   21   40 1
  42   21   41 1
  43   21   42 1

#	End of record

