#	Name: ASD01882342
#	Creating user name:	WinNT
#	Creation time:	15. 06. 2019 19:44

#	Modifying user name:	WinNT
#	Modification time:	15. 06. 2019 19:44

#	Program:	/corina/corina34_cracker 3.40 0067  02.08.2006

@<TRIPOS>MOLECULE
ASD01882342
  54   58    0    0    0
SMALL
NO_CHARGES


@<TRIPOS>ATOM
   1 C1             0.3616     1.3744    -1.2951 C.2     
   2 C2             0.4667    -0.0175    -1.1327 C.2     
   3 C3             0.9136    -0.5179     0.0600 C.2     
   4 C4             1.2598     0.3697     1.1022 C.2     
   5 C5             1.1513     1.7009     0.9247 C.2     
   6 N6             0.7068     2.2099    -0.2606 N.pl3   
   7 N7             0.0613     3.3820    -1.9488 N.2     
   8 N8            -0.0211     2.1470    -2.3002 N.2     
   9 C9             0.4985     3.4769    -0.7208 C.2     
  10 C10            0.0915    -0.9474    -2.2577 C.3     
  11 F11           -1.2374    -1.3558    -2.1016 F       
  12 F12            0.2344    -0.2821    -3.4800 F       
  13 F13            0.9293    -2.0676    -2.2358 F       
  14 N14            1.0257    -1.8926     0.2448 N.pl3   
  15 C15            2.3385    -2.5214     0.4554 C.3     
  16 C16            2.2606    -3.4039     1.7057 C.3     
  17 N17            1.1375    -4.3411     1.5705 N.3     
  18 C18           -0.1448    -3.6286     1.4936 C.3     
  19 C19           -0.1661    -2.7545     0.2407 C.3     
  20 C20            1.1323    -5.2699     2.6136 C.ar    
  21 C21            1.1212    -4.8351     3.9328 C.ar    
  22 C22            1.1156    -5.7562     4.9618 C.ar    
  23 C23            1.1210    -7.1100     4.6801 C.ar    
  24 C24            1.1320    -7.5463     3.3679 C.ar    
  25 C25            1.1323    -6.6306     2.3341 C.ar    
  26 C26            3.5649    -4.1888     1.8587 C.3     
  27 C27            0.7318     4.7531     0.0460 C.3     
  28 C28            2.1673     5.2306    -0.1832 C.3     
  29 C29            2.5678     6.5790     0.4186 C.3     
  30 C30            3.0974     5.2806     1.0306 C.3     
  31 H31            1.6127    -0.0201     2.0455 H       
  32 H32            1.4183     2.3712     1.7283 H       
  33 H33            2.5943    -3.1335    -0.4095 H       
  34 H34            3.0953    -1.7500     0.5982 H       
  35 H35            2.1076    -2.7772     2.5843 H       
  36 H36           -0.9601    -4.3507     1.4488 H       
  37 H37           -0.2644    -2.9987     2.3752 H       
  38 H38           -1.0644    -2.1371     0.2417 H       
  39 H39           -0.1557    -3.3894    -0.6452 H       
  40 H40            1.1173    -3.7779     4.1536 H       
  41 H41            1.1073    -5.4188     5.9877 H       
  42 H42            1.1169    -7.8283     5.4866 H       
  43 H43            1.1362    -8.6044     3.1513 H       
  44 H44            1.1365    -6.9720     1.3094 H       
  45 H45            4.4082    -3.4984     1.8450 H       
  46 H46            3.5542    -4.7305     2.8045 H       
  47 H47            3.6616    -4.8968     1.0356 H       
  48 H48            0.0353     5.5171    -0.2995 H       
  49 H49            0.5745     4.5721     1.1093 H       
  50 H50            2.6059     4.9575    -1.1429 H       
  51 H51            3.2703     7.1929    -0.1450 H       
  52 H52            1.8087     7.1260     0.9778 H       
  53 H53            2.6867     4.9734     1.9924 H       
  54 H54            4.1483     5.0403     0.8696 H       
@<TRIPOS>BOND
   1    1    2 1
   2    1    6 1
   3    1    8 2
   4    2    3 2
   5    2   10 1
   6    3    4 1
   7    3   14 1
   8    4    5 2
   9    4   31 1
  10    5    6 1
  11    5   32 1
  12    6    9 1
  13    7    8 1
  14    7    9 2
  15    9   27 1
  16   10   11 1
  17   10   12 1
  18   10   13 1
  19   14   15 1
  20   14   19 1
  21   15   16 1
  22   15   33 1
  23   15   34 1
  24   16   17 1
  25   16   26 1
  26   16   35 1
  27   17   18 1
  28   17   20 1
  29   18   19 1
  30   18   36 1
  31   18   37 1
  32   19   38 1
  33   19   39 1
  34   20   21 ar
  35   20   25 ar
  36   21   22 ar
  37   21   40 1
  38   22   23 ar
  39   22   41 1
  40   23   24 ar
  41   23   42 1
  42   24   25 ar
  43   24   43 1
  44   25   44 1
  45   26   45 1
  46   26   46 1
  47   26   47 1
  48   27   28 1
  49   27   48 1
  50   27   49 1
  51   28   29 1
  52   28   30 1
  53   28   50 1
  54   29   30 1
  55   29   51 1
  56   29   52 1
  57   30   53 1
  58   30   54 1

#	End of record

