#	Name: ASD01884749
#	Creating user name:	WinNT
#	Creation time:	15. 06. 2019 19:48

#	Modifying user name:	WinNT
#	Modification time:	15. 06. 2019 19:48

#	Program:	/corina/corina34_cracker 3.40 0067  02.08.2006

@<TRIPOS>MOLECULE
ASD01884749
  41   43    0    0    0
SMALL
NO_CHARGES


@<TRIPOS>ATOM
   1 C1            -0.0170     1.4020     0.0098 C.2     
   2 C2             0.0021    -0.0041     0.0020 C.2     
   3 C3            -1.2245    -0.6972     0.0100 C.2     
   4 C4            -2.3887    -0.0097     0.0247 C.2     
   5 N5            -2.4081     1.3481     0.0322 N.am    
   6 C6            -1.2689     2.0648     0.0312 C.2     
   7 C7             1.2047     2.1489     0.0021 C.1     
   8 N8             2.1739     2.7415    -0.0040 N.1     
   9 C9             1.2833    -0.7401    -0.0146 C.ar    
  10 C10           -3.6955     2.0471     0.0482 C.3     
  11 O11           -1.3144     3.2832     0.0380 O.2     
  12 C12           -4.1299     2.2827     1.4962 C.3     
  13 C13           -5.4099     3.1207     1.5147 C.3     
  14 C14           -4.3916     0.9370     2.1755 C.3     
  15 C15           -5.7754     3.4616     2.9607 C.3     
  16 C16            2.1553    -0.6518     1.0725 C.ar    
  17 C17            1.6225    -1.5306    -1.1155 C.ar    
  18 C18            2.8210    -2.2171    -1.1274 C.ar    
  19 C19            3.6908    -2.1203    -0.0401 C.ar    
  20 C20            3.3503    -1.3388     1.0551 C.ar    
  21 O21            3.3808    -3.0415    -2.0606 O.3     
  22 C22            4.7762    -3.1209    -1.7150 C.3     
  23 O23            4.7918    -2.8842    -0.2950 O.3     
  24 H24           -1.2348    -1.7771     0.0039 H       
  25 H25           -3.3228    -0.5518     0.0303 H       
  26 H26           -3.5950     3.0053    -0.4615 H       
  27 H27           -4.4443     1.4411    -0.4618 H       
  28 H28           -3.3412     2.8122     2.0306 H       
  29 H29           -5.2494     4.0415     0.9538 H       
  30 H30           -6.2217     2.5542     1.0586 H       
  31 H31           -3.4797     0.3400     2.1623 H       
  32 H32           -4.7011     1.1048     3.2071 H       
  33 H33           -5.1803     0.4075     1.6411 H       
  34 H34           -5.9358     2.5409     3.5217 H       
  35 H35           -4.9635     4.0282     3.4168 H       
  36 H36           -6.6872     4.0587     2.9739 H       
  37 H37            1.8937    -0.0449     1.9267 H       
  38 H38            0.9484    -1.6051    -1.9560 H       
  39 H39            4.0256    -1.2654     1.8947 H       
  40 H40            5.1713    -4.1110    -1.9424 H       
  41 H41            5.3445    -2.3515    -2.2377 H       
@<TRIPOS>BOND
   1    1    2 2
   2    1    7 1
   3    1    6 1
   4    2    3 1
   5    2    9 1
   6    3    4 2
   7    3   24 1
   8    4    5 1
   9    4   25 1
  10    5    6 am
  11    5   10 1
  12    6   11 2
  13    7    8 3
  14    9   16 ar
  15    9   17 ar
  16   10   12 1
  17   10   26 1
  18   10   27 1
  19   12   14 1
  20   12   13 1
  21   12   28 1
  22   13   15 1
  23   13   29 1
  24   13   30 1
  25   14   31 1
  26   14   32 1
  27   14   33 1
  28   15   34 1
  29   15   35 1
  30   15   36 1
  31   16   20 ar
  32   16   37 1
  33   17   18 ar
  34   17   38 1
  35   18   19 ar
  36   18   21 1
  37   19   20 ar
  38   19   23 1
  39   20   39 1
  40   21   22 1
  41   22   23 1
  42   22   40 1
  43   22   41 1

#	End of record

