#	Name: ASD01020012
#	Creating user name:	WinNT
#	Creation time:	15. 06. 2019 18:56

#	Modifying user name:	WinNT
#	Modification time:	15. 06. 2019 18:56

#	Program:	/corina/corina34_cracker 3.40 0067  02.08.2006

@<TRIPOS>MOLECULE
ASD01020012
  40   43    0    0    0
SMALL
NO_CHARGES


@<TRIPOS>ATOM
   1 C1            -0.1619     2.2295    -0.9229 C.ar    
   2 C2             0.7258     1.1780    -1.0552 C.ar    
   3 C3             1.7957     1.2819    -1.9242 C.ar    
   4 C4             1.9778     2.4371    -2.6614 C.ar    
   5 C5             1.0896     3.4882    -2.5298 C.ar    
   6 C6             0.0205     3.3848    -1.6597 C.ar    
   7 C7            -1.3319     2.1138     0.0199 C.3     
   8 N8            -1.2766     3.1993     1.0022 N.am    
   9 C9            -2.6174     2.2079    -0.7610 C.2     
  10 O10           -3.4094     3.0944    -0.5205 O.2     
  11 N11           -2.8869     1.3070    -1.7264 N.am    
  12 C12           -4.0726     1.3937    -2.4466 C.2     
  13 C13           -6.0397     1.2219    -3.9175 C.2     
  14 C14           -6.0482     2.2343    -3.0482 C.2     
  15 N15           -4.9813     2.3019    -2.2740 N.2     
  16 S16           -4.5414     0.3226    -3.6940 S.3     
  17 C17           -1.1949     5.3516     2.0159 C.ar    
  18 C18           -1.2507     4.6330     0.6910 C.3     
  19 C19           -1.2472     3.0461     2.3373 C.2     
  20 C20           -1.1940     4.3622     3.0022 C.ar    
  21 O21           -1.2626     1.9764     2.9143 O.2     
  22 C22           -1.1037     7.0435     3.7017 C.ar    
  23 C23           -1.1528     6.6810     2.3657 C.ar    
  24 C24           -1.1471     4.7353     4.3464 C.ar    
  25 C25           -1.1023     6.0718     4.6865 C.ar    
  26 H26            0.5835     0.2755    -0.4793 H       
  27 H27            2.4896     0.4607    -2.0270 H       
  28 H28            2.8141     2.5185    -3.3398 H       
  29 H29            1.2321     4.3908    -3.1054 H       
  30 H30           -0.6732     4.2062    -1.5566 H       
  31 H31           -1.2894     1.1545     0.5356 H       
  32 H32           -2.2534     0.5980    -1.9187 H       
  33 H33           -6.8152     0.9944    -4.6338 H       
  34 H34           -6.8630     2.9401    -2.9822 H       
  35 H35           -0.3678     4.8716     0.0980 H       
  36 H36           -2.1536     4.9151     0.1496 H       
  37 H37           -1.0703     8.0876     3.9755 H       
  38 H38           -1.1538     7.4418     1.5991 H       
  39 H39           -1.1462     3.9799     5.1183 H       
  40 H40           -1.0657     6.3608     5.7265 H       
@<TRIPOS>BOND
   1    1    2 ar
   2    1    6 ar
   3    1    7 1
   4    2    3 ar
   5    2   26 1
   6    3    4 ar
   7    3   27 1
   8    4    5 ar
   9    4   28 1
  10    5    6 ar
  11    5   29 1
  12    6   30 1
  13    7    8 1
  14    7    9 1
  15    7   31 1
  16    8   19 am
  17    8   18 1
  18    9   10 2
  19    9   11 am
  20   11   12 1
  21   11   32 1
  22   12   16 1
  23   12   15 2
  24   13   14 2
  25   13   16 1
  26   13   33 1
  27   14   15 1
  28   14   34 1
  29   17   18 1
  30   17   20 ar
  31   17   23 ar
  32   18   35 1
  33   18   36 1
  34   19   20 1
  35   19   21 2
  36   20   24 ar
  37   22   23 ar
  38   22   25 ar
  39   22   37 1
  40   23   38 1
  41   24   25 ar
  42   24   39 1
  43   25   40 1

#	End of record

