#	Name: ASD04910518
#	Creating user name:	WinNT
#	Creation time:	15. 06. 2019 20:56

#	Modifying user name:	WinNT
#	Modification time:	15. 06. 2019 20:56

#	Program:	/corina/corina34_cracker 3.40 0067  02.08.2006

@<TRIPOS>MOLECULE
ASD04910518
  64   66    0    0    0
SMALL
NO_CHARGES


@<TRIPOS>ATOM
   1 C1            -0.0184     1.5028     0.0103 C.2     
   2 N2             1.4712    -1.9592    -0.0225 N.am    
   3 C3             1.4513    -0.4944    -0.0145 C.3     
   4 C4             0.0021    -0.0041     0.0020 C.3     
   5 O5             1.0197     2.1211     0.0037 O.2     
   6 O6            -1.1898     2.1580     0.0194 O.3     
   7 C7             2.6473    -2.6171    -0.0373 C.2     
   8 C8             2.6674    -4.0954    -0.0454 C.ar    
   9 C9             3.8837    -4.7799    -0.0607 C.ar    
  10 C10            3.8954    -6.1594    -0.0677 C.ar    
  11 C11            2.7049    -6.8644    -0.0601 C.ar    
  12 C12            1.4958    -6.1920    -0.0450 C.ar    
  13 C13            1.4701    -4.8127    -0.0320 C.ar    
  14 O14            3.6916    -1.9951    -0.0439 O.2     
  15 C15            2.7254    -8.3712    -0.0689 C.3     
  16 C16            2.4957    -8.8926     1.3511 C.3     
  17 C17            2.6401   -10.4157     1.3646 C.3     
  18 C18            2.4104   -10.9372     2.7846 C.3     
  19 N19            1.6654    -8.8688    -0.9493 N.pl3   
  20 C20            2.8968   -10.9216    -1.2948 C.ar    
  21 C21            1.7812   -10.1318    -1.5383 C.ar    
  22 C22            0.7781   -10.6142    -2.3767 C.ar    
  23 C23            0.9352   -11.8696    -2.9370 C.ar    
  24 C24            2.0792   -12.6024    -2.6473 C.ar    
  25 N25            3.0119   -12.1134    -1.8466 N.ar    
  26 N26            2.2470   -13.8732    -3.2092 N.pl3   
  27 N27            1.3512   -14.5197    -4.0707 N.2     
  28 C28            1.8533   -15.6869    -4.3833 C.2     
  29 C29            3.0846   -15.8255    -3.7334 C.2     
  30 C30            3.3101   -14.6972    -3.0213 C.2     
  31 C31            4.0009   -17.0190    -3.8162 C.3     
  32 F32            3.4327   -17.9860    -4.6524 F       
  33 F33            5.2379   -16.6221    -4.3354 F       
  34 F34            4.1828   -17.5569    -2.5376 F       
  35 F35            1.1237   -10.5869     3.2075 F       
  36 F36            2.5424   -12.3299     2.7970 F       
  37 F37            3.3551   -10.3715     3.6476 F       
  38 C38           -1.1335     3.6089     0.0270 C.3     
  39 C39           -2.5551     4.1744     0.0369 C.3     
  40 H40            0.6378    -2.4556    -0.0172 H       
  41 H41            1.9686    -0.1289     0.8726 H       
  42 H42            1.9516    -0.1193    -0.9073 H       
  43 H43           -0.4983    -0.3791     0.8948 H       
  44 H44           -0.5153    -0.3696    -0.8850 H       
  45 H45            4.8137    -4.2307    -0.0674 H       
  46 H46            4.8359    -6.6902    -0.0796 H       
  47 H47            0.5700    -6.7482    -0.0391 H       
  48 H48            0.5257    -4.2891    -0.0157 H       
  49 H49            3.6924    -8.7193    -0.4318 H       
  50 H50            3.2317    -8.4519     2.0234 H       
  51 H51            1.4932    -8.6197     1.6806 H       
  52 H52            1.9040   -10.8565     0.6922 H       
  53 H53            3.6426   -10.6886     1.0351 H       
  54 H54            0.8833    -8.3222    -1.1236 H       
  55 H55            3.6810   -10.5538    -0.6498 H       
  56 H56           -0.1011   -10.0223    -2.5840 H       
  57 H57            0.1775   -12.2750    -3.5912 H       
  58 H58            1.3953   -16.4186    -5.0324 H       
  59 H59            4.1773   -14.4904    -2.4117 H       
  60 H60           -0.6017     3.9472     0.9164 H       
  61 H61           -0.6102     3.9569    -0.8636 H       
  62 H62           -3.0869     3.8361    -0.8525 H       
  63 H63           -3.0784     3.8265     0.9275 H       
  64 H64           -2.5128     5.2636     0.0426 H       
@<TRIPOS>BOND
   1    1    4 1
   2    1    5 2
   3    1    6 1
   4    2    3 1
   5    2    7 am
   6    2   40 1
   7    3    4 1
   8    3   41 1
   9    3   42 1
  10    4   43 1
  11    4   44 1
  12    6   38 1
  13    7    8 1
  14    7   14 2
  15    8    9 ar
  16    8   13 ar
  17    9   10 ar
  18    9   45 1
  19   10   11 ar
  20   10   46 1
  21   11   12 ar
  22   11   15 1
  23   12   13 ar
  24   12   47 1
  25   13   48 1
  26   15   16 1
  27   15   19 1
  28   15   49 1
  29   16   17 1
  30   16   50 1
  31   16   51 1
  32   17   18 1
  33   17   52 1
  34   17   53 1
  35   18   35 1
  36   18   36 1
  37   18   37 1
  38   19   21 1
  39   19   54 1
  40   20   21 ar
  41   20   25 ar
  42   20   55 1
  43   21   22 ar
  44   22   23 ar
  45   22   56 1
  46   23   24 ar
  47   23   57 1
  48   24   25 ar
  49   24   26 1
  50   26   27 1
  51   26   30 1
  52   27   28 2
  53   28   29 1
  54   28   58 1
  55   29   30 2
  56   29   31 1
  57   30   59 1
  58   31   32 1
  59   31   33 1
  60   31   34 1
  61   38   39 1
  62   38   60 1
  63   38   61 1
  64   39   62 1
  65   39   63 1
  66   39   64 1

#	End of record

