#	Name: ASD00069066
#	Creating user name:	WinNT
#	Creation time:	15. 06. 2019 18:29

#	Modifying user name:	WinNT
#	Modification time:	15. 06. 2019 18:29

#	Program:	/corina/corina34_cracker 3.40 0067  02.08.2006

@<TRIPOS>MOLECULE
ASD00069066
  29   29    0    0    0
SMALL
NO_CHARGES


@<TRIPOS>ATOM
   1 C1            -0.0187     1.5258     0.0104 C.3     
   2 C2             0.0021    -0.0041     0.0020 C.3     
   3 C3             1.4167     2.0553    -0.0004 C.3     
   4 N4            -0.7292     2.0124    -1.1797 N.3     
   5 C5            -0.8727     3.4734    -1.1462 C.3     
   6 C6            -1.7401     3.9292    -2.3217 C.3     
   7 C7            -1.0832     3.4922    -3.6340 C.3     
   8 C8            -0.9011     1.9719    -3.6229 C.3     
   9 C9            -0.0580     1.5729    -2.4096 C.3     
  10 C10           -1.9761     3.8916    -4.8105 C.3     
  11 H11           -0.5289     1.8773     0.9072 H       
  12 H12            0.5293    -0.3651     0.8851 H       
  13 H13           -1.0205    -0.3814     0.0098 H       
  14 H14            0.5123    -0.3556    -0.8948 H       
  15 H15            1.9269     1.7038    -0.8972 H       
  16 H16            1.4019     3.1452     0.0056 H       
  17 H17            1.9439     1.6943     0.8826 H       
  18 H18           -1.3448     3.7706    -0.2097 H       
  19 H19            0.1112     3.9368    -1.2197 H       
  20 H20           -2.7286     3.4771    -2.2413 H       
  21 H21           -1.8335     5.0151    -2.3055 H       
  22 H22           -0.1110     3.9748    -3.7330 H       
  23 H23           -1.8765     1.4890    -3.5630 H       
  24 H24           -0.3951     1.6594    -4.5363 H       
  25 H25            0.9220     2.0451    -2.4772 H       
  26 H26            0.0615     0.4896    -2.3909 H       
  27 H27           -2.1097     4.9734    -4.8143 H       
  28 H28           -1.5077     3.5802    -5.7441 H       
  29 H29           -2.9468     3.4059    -4.7112 H       
@<TRIPOS>BOND
   1    1    2 1
   2    1    3 1
   3    1    4 1
   4    1   11 1
   5    2   12 1
   6    2   13 1
   7    2   14 1
   8    3   15 1
   9    3   16 1
  10    3   17 1
  11    4    5 1
  12    4    9 1
  13    5    6 1
  14    5   18 1
  15    5   19 1
  16    6    7 1
  17    6   20 1
  18    6   21 1
  19    7    8 1
  20    7   10 1
  21    7   22 1
  22    8    9 1
  23    8   23 1
  24    8   24 1
  25    9   25 1
  26    9   26 1
  27   10   27 1
  28   10   28 1
  29   10   29 1

#	End of record

