#	Name: ASD04640022
#	Creating user name:	WinNT
#	Creation time:	15. 06. 2019 20:52

#	Modifying user name:	WinNT
#	Modification time:	15. 06. 2019 20:52

#	Program:	/corina/corina34_cracker 3.40 0067  02.08.2006

@<TRIPOS>MOLECULE
ASD04640022
  57   61    0    0    0
SMALL
NO_CHARGES


@<TRIPOS>ATOM
   1 C1             1.2038    -0.6815    -0.0551 C.ar    
   2 C2             0.0002    -0.0008    -0.0006 C.ar    
   3 C3            -0.0146     1.3810     0.0474 C.ar    
   4 C4             1.1724     2.0871     0.0413 C.ar    
   5 C5             2.3831     1.4084    -0.0128 C.ar    
   6 C6             2.3961     0.0197    -0.0611 C.ar    
   7 N7             3.5855     2.1206    -0.0195 N.3     
   8 C8             4.3448     1.8839     1.2162 C.3     
   9 C9             5.6865     2.6158     1.1355 C.3     
  10 N10            5.4469     4.0518     0.9349 N.3     
  11 C11            4.6876     4.2886    -0.3008 C.3     
  12 C12            3.3459     3.5566    -0.2201 C.3     
  13 Cl13           1.2176    -2.4166    -0.1086 Cl      
  14 Cl14           3.9063    -0.8337    -0.1294 Cl      
  15 C15            6.7108     4.8005     0.9278 C.3     
  16 C16            6.4497     6.2376     0.4724 C.3     
  17 C17            7.6260     7.2152     0.5098 C.3     
  18 C18            7.1055     6.6956    -0.8318 C.3     
  19 C19            7.3233     8.6714     0.8689 C.3     
  20 N20            8.5783     9.4205     0.9697 N.am    
  21 C21            8.5571    10.7323     1.2782 C.2     
  22 C22            9.8168    11.4843     1.3795 C.2     
  23 O23            7.4959    11.2943     1.4730 O.2     
  24 C24            9.9242    12.8031     1.6881 C.2     
  25 N25           11.0800    10.9610     1.1818 N.pl3   
  26 C26           11.3003    13.1365     1.6820 C.ar    
  27 C27           12.0036    14.3242     1.9221 C.ar    
  28 C28           12.0064    11.9608     1.3609 C.ar    
  29 C29           13.3963    11.9963     1.2866 C.ar    
  30 C30           14.0644    13.1765     1.5233 C.ar    
  31 C31           13.3655    14.3349     1.8397 C.ar    
  32 H32           -0.9297    -0.5501     0.0039 H       
  33 H33           -0.9558     1.9090     0.0895 H       
  34 H34            1.1593     3.1664     0.0782 H       
  35 H35            3.7775     2.2573     2.0688 H       
  36 H36            4.5204     0.8148     1.3359 H       
  37 H37            6.2391     2.4654     2.0629 H       
  38 H38            6.2651     2.2234     0.2993 H       
  39 H39            4.5120     5.3576    -0.4206 H       
  40 H40            5.2548     3.9151    -1.1534 H       
  41 H41            2.7932     3.7070    -1.1475 H       
  42 H42            2.7672     3.9490     0.6161 H       
  43 H43            7.1338     4.8088     1.9323 H       
  44 H44            7.4116     4.3238     0.2424 H       
  45 H45            5.4602     6.6317     0.7041 H       
  46 H46            8.5858     6.8346     0.8592 H       
  47 H47            7.7230     5.9730    -1.3655 H       
  48 H48            6.5474     7.3911    -1.4586 H       
  49 H49            6.6972     9.1140     0.0942 H       
  50 H50            6.8001     8.7087     1.8243 H       
  51 H51            9.4244     8.9724     0.8144 H       
  52 H52            9.1067    13.4762     1.9000 H       
  53 H53           11.2803    10.0395     0.9546 H       
  54 H54           11.4691    15.2290     2.1713 H       
  55 H55           13.9487    11.1005     1.0443 H       
  56 H56           15.1425    13.2015     1.4654 H       
  57 H57           13.9054    15.2518     2.0249 H       
@<TRIPOS>BOND
   1    1    2 ar
   2    1    6 ar
   3    1   13 1
   4    2    3 ar
   5    2   32 1
   6    3    4 ar
   7    3   33 1
   8    4    5 ar
   9    4   34 1
  10    5    6 ar
  11    5    7 1
  12    6   14 1
  13    7    8 1
  14    7   12 1
  15    8    9 1
  16    8   35 1
  17    8   36 1
  18    9   10 1
  19    9   37 1
  20    9   38 1
  21   10   11 1
  22   10   15 1
  23   11   12 1
  24   11   39 1
  25   11   40 1
  26   12   41 1
  27   12   42 1
  28   15   16 1
  29   15   43 1
  30   15   44 1
  31   16   17 1
  32   16   18 1
  33   16   45 1
  34   17   19 1
  35   17   18 1
  36   17   46 1
  37   18   47 1
  38   18   48 1
  39   19   20 1
  40   19   49 1
  41   19   50 1
  42   20   21 am
  43   20   51 1
  44   21   22 1
  45   21   23 2
  46   22   25 1
  47   22   24 2
  48   24   26 1
  49   24   52 1
  50   25   28 1
  51   25   53 1
  52   26   28 ar
  53   26   27 ar
  54   27   31 ar
  55   27   54 1
  56   28   29 ar
  57   29   30 ar
  58   29   55 1
  59   30   31 ar
  60   30   56 1
  61   31   57 1

#	End of record

