#	Name: ASD08150434
#	Creating user name:	WinNT
#	Creation time:	15. 06. 2019 21:16

#	Modifying user name:	WinNT
#	Modification time:	15. 06. 2019 21:16

#	Program:	/corina/corina34_cracker 3.40 0067  02.08.2006

@<TRIPOS>MOLECULE
ASD08150434
  59   61    0    0    0
SMALL
NO_CHARGES


@<TRIPOS>ATOM
   1 C1            -3.4742     2.2168    -0.5027 C.2     
   2 C2            -4.8076     1.6400    -0.9034 C.3     
   3 O3            -2.4807     1.5308    -0.5494 O.2     
   4 O4            -3.3895     3.4942    -0.0992 O.3     
   5 C5            -2.1004     3.9458     0.3933 C.3     
   6 C6            -1.3837     4.7022    -0.6954 C.2     
   7 N7            -0.0247     4.6259    -0.7986 N.pl3   
   8 C8             0.6255     4.5947    -2.1158 C.3     
   9 C9             1.6793     5.7052    -2.1718 C.3     
  10 C10            2.6416     5.5499    -0.9920 C.3     
  11 C11            1.8673     5.6846     0.3212 C.3     
  12 C12            0.8160     4.5795     0.4055 C.3     
  13 N13           -2.0621     5.4299    -1.5393 N.2     
  14 C14           -1.4355     6.4135    -2.2507 C.ar    
  15 C15           -1.3994     6.3581    -3.6588 C.ar    
  16 C16           -0.7553     7.3717    -4.3708 C.ar    
  17 C17           -0.1608     8.4165    -3.6965 C.ar    
  18 C18           -0.1960     8.4705    -2.3117 C.ar    
  19 C19           -0.8315     7.4834    -1.5890 C.ar    
  20 C20           -2.0364     5.2384    -4.3740 C.2     
  21 N21           -1.3278     4.1260    -4.6518 N.am    
  22 O22           -3.2015     5.3179    -4.7136 O.2     
  23 C23           -1.9130     3.0894    -5.3858 C.ar    
  24 C24           -3.2598     2.7934    -5.2200 C.ar    
  25 C25           -3.8347     1.7693    -5.9467 C.ar    
  26 C26           -3.0709     1.0387    -6.8383 C.ar    
  27 C27           -1.7297     1.3309    -7.0058 C.ar    
  28 C28           -1.1499     2.3574    -6.2863 C.ar    
  29 C29           -0.7097     7.3232    -5.8764 C.3     
  30 C30           -2.3083     4.8633     1.5998 C.3     
  31 H31           -5.2906     1.2009    -0.0305 H       
  32 H32           -5.4387     2.4311    -1.3084 H       
  33 H33           -4.6578     0.8709    -1.6611 H       
  34 H34           -1.5029     3.0840     0.6908 H       
  35 H35            1.1058     3.6275    -2.2634 H       
  36 H36           -0.1192     4.7580    -2.8948 H       
  37 H37            2.2351     5.6325    -3.1067 H       
  38 H38            1.1877     6.6764    -2.1149 H       
  39 H39            3.1144     4.5687    -1.0358 H       
  40 H40            3.4070     6.3242    -1.0434 H       
  41 H41            2.5569     5.5972     1.1607 H       
  42 H42            1.3740     6.6560     0.3546 H       
  43 H43            0.1969     4.7327     1.2895 H       
  44 H44            1.3121     3.6110     0.4677 H       
  45 H45            0.3364     9.1986    -4.2510 H       
  46 H46            0.2740     9.2945    -1.7954 H       
  47 H47           -0.8584     7.5359    -0.5106 H       
  48 H48           -0.4120     4.0445    -4.3427 H       
  49 H49           -3.8568     3.3631    -4.5232 H       
  50 H50           -4.8820     1.5386    -5.8182 H       
  51 H51           -3.5227     0.2380    -7.4049 H       
  52 H52           -1.1358     0.7585    -7.7030 H       
  53 H53           -0.1034     2.5880    -6.4208 H       
  54 H54           -1.5789     7.8402    -6.2830 H       
  55 H55            0.2000     7.8099    -6.2281 H       
  56 H56           -0.7171     6.2846    -6.2069 H       
  57 H57           -2.8267     4.3162     2.3873 H       
  58 H58           -1.3405     5.2023     1.9695 H       
  59 H59           -2.9058     5.7251     1.3023 H       
@<TRIPOS>BOND
   1    1    2 1
   2    1    3 2
   3    1    4 1
   4    2   31 1
   5    2   32 1
   6    2   33 1
   7    4    5 1
   8    5    6 1
   9    5   30 1
  10    5   34 1
  11    6    7 1
  12    6   13 2
  13    7    8 1
  14    7   12 1
  15    8    9 1
  16    8   35 1
  17    8   36 1
  18    9   10 1
  19    9   37 1
  20    9   38 1
  21   10   11 1
  22   10   39 1
  23   10   40 1
  24   11   12 1
  25   11   41 1
  26   11   42 1
  27   12   43 1
  28   12   44 1
  29   13   14 1
  30   14   15 ar
  31   14   19 ar
  32   15   16 ar
  33   15   20 1
  34   16   17 ar
  35   16   29 1
  36   17   18 ar
  37   17   45 1
  38   18   19 ar
  39   18   46 1
  40   19   47 1
  41   20   21 am
  42   20   22 2
  43   21   23 1
  44   21   48 1
  45   23   24 ar
  46   23   28 ar
  47   24   25 ar
  48   24   49 1
  49   25   26 ar
  50   25   50 1
  51   26   27 ar
  52   26   51 1
  53   27   28 ar
  54   27   52 1
  55   28   53 1
  56   29   54 1
  57   29   55 1
  58   29   56 1
  59   30   57 1
  60   30   58 1
  61   30   59 1

#	End of record

