#	Name: ASD04590457
#	Creating user name:	WinNT
#	Creation time:	15. 06. 2019 20:50

#	Modifying user name:	WinNT
#	Modification time:	15. 06. 2019 20:50

#	Program:	/corina/corina34_cracker 3.40 0067  02.08.2006

@<TRIPOS>MOLECULE
ASD04590457
  50   54    0    0    0
SMALL
NO_CHARGES


@<TRIPOS>ATOM
   1 C1            -0.0175     1.3929     0.0256 C.ar    
   2 C2             0.0016    -0.0034     0.0186 C.ar    
   3 C3            -2.4018    -0.0376     0.0350 C.ar    
   4 C4            -2.4148     1.3676     0.0526 C.ar    
   5 C5            -1.2199     2.0740     0.0425 C.ar    
   6 N6            -3.6935    -0.4511     0.0502 N.2     
   7 C7            -4.4895     0.5901     0.0757 C.2     
   8 N8            -3.7467     1.7409     0.0783 N.pl3   
   9 C9            -5.9657     0.5312     0.0983 C.2     
  10 C10           -6.7508    -0.6449     0.0966 C.2     
  11 C11           -8.0538    -0.2720     0.1216 C.2     
  12 N12           -8.0981     1.0862     0.1385 N.pl3   
  13 N13           -6.7824     1.5660     0.1293 N.2     
  14 N14           -6.2672    -1.9631     0.0731 N.am    
  15 C15           -7.1308    -2.9978     0.0744 C.2     
  16 O16           -8.3295    -2.7898     0.0957 O.2     
  17 C17           -6.6242    -4.3788     0.0498 C.2     
  18 C18           -1.1782    -0.7169     0.0232 C.ar    
  19 N19           -5.3270    -4.7642    -0.0733 N.2     
  20 O20            1.1911    -0.6635     0.0067 O.3     
  21 C21            1.1406    -2.0916     0.0000 C.3     
  22 C22           -5.2735    -6.0623    -0.0538 C.2     
  23 O23           -6.5088    -6.5654     0.0800 O.3     
  24 C24           -7.3771    -5.5373     0.1538 C.2     
  25 O25            1.1529     2.0859     0.0214 O.3     
  26 C26            1.0625     3.5120     0.0290 C.3     
  27 C27           -8.8422    -5.6278     0.3055 C.ar    
  28 C28           -9.5839    -6.4657    -0.5307 C.ar    
  29 C29          -10.9529    -6.5453    -0.3833 C.ar    
  30 C30          -11.5919    -5.7976     0.5902 C.ar    
  31 C31          -10.8636    -4.9655     1.4220 C.ar    
  32 C32           -9.4933    -4.8803     1.2897 C.ar    
  33 H33           -1.2299     3.1539     0.0483 H       
  34 H34           -4.0902     2.6479     0.0950 H       
  35 H35           -8.9053    -0.9362     0.1270 H       
  36 H36           -8.9017     1.6292     0.1577 H       
  37 H37           -5.3117    -2.1289     0.0561 H       
  38 H38           -1.1582    -1.7967     0.0174 H       
  39 H39            0.6077    -2.4322    -0.8878 H       
  40 H40            2.1547    -2.4911    -0.0093 H       
  41 H41            0.6207    -2.4409     0.8921 H       
  42 H42           -4.3696    -6.6479    -0.1335 H       
  43 H43            0.5210     3.8465    -0.8558 H       
  44 H44            0.5325     3.8377     0.9241 H       
  45 H45            2.0651     3.9396     0.0246 H       
  46 H46           -9.0865    -7.0495    -1.2911 H       
  47 H47          -11.5276    -7.1924    -1.0293 H       
  48 H48          -12.6642    -5.8636     0.7009 H       
  49 H49          -11.3688    -4.3848     2.1796 H       
  50 H50           -8.9261    -4.2308     1.9399 H       
@<TRIPOS>BOND
   1    1    2 ar
   2    1   25 1
   3    1    5 ar
   4    2   18 ar
   5    2   20 1
   6    3    4 ar
   7    3    6 1
   8    3   18 ar
   9    4    5 ar
  10    4    8 1
  11    5   33 1
  12    6    7 2
  13    7    8 1
  14    7    9 1
  15    8   34 1
  16    9   10 1
  17    9   13 2
  18   10   11 2
  19   10   14 1
  20   11   12 1
  21   11   35 1
  22   12   13 1
  23   12   36 1
  24   14   15 am
  25   14   37 1
  26   15   16 2
  27   15   17 1
  28   17   19 1
  29   17   24 2
  30   18   38 1
  31   19   22 2
  32   20   21 1
  33   21   39 1
  34   21   40 1
  35   21   41 1
  36   22   23 1
  37   22   42 1
  38   23   24 1
  39   24   27 1
  40   25   26 1
  41   26   43 1
  42   26   44 1
  43   26   45 1
  44   27   28 ar
  45   27   32 ar
  46   28   29 ar
  47   28   46 1
  48   29   30 ar
  49   29   47 1
  50   30   31 ar
  51   30   48 1
  52   31   32 ar
  53   31   49 1
  54   32   50 1

#	End of record

