#	Name: ASD01810965
#	Creating user name:	WinNT
#	Creation time:	15. 06. 2019 19:25

#	Modifying user name:	WinNT
#	Modification time:	15. 06. 2019 19:25

#	Program:	/corina/corina34_cracker 3.40 0067  02.08.2006

@<TRIPOS>MOLECULE
ASD01810965
  37   37    0    0    0
SMALL
NO_CHARGES


@<TRIPOS>ATOM
   1 C1             0.0622     1.4260    -0.5259 C.2     
   2 C2             0.0409    -0.0268    -0.2576 C.ar    
   3 C3             1.2069    -0.7830    -0.4024 C.ar    
   4 C4             1.1875    -2.1402    -0.1525 C.ar    
   5 C5             0.0175    -2.7594     0.2423 C.ar    
   6 C6            -1.1538    -2.0157     0.3911 C.ar    
   7 C7            -1.1411    -0.6454     0.1460 C.ar    
   8 O8             0.7021     1.8614    -1.4620 O.2     
   9 O9            -0.6325     2.2671     0.2644 O.3     
  10 C10            0.0058    -4.2420     0.5124 C.3     
  11 C11            2.4877    -0.1156    -0.8327 C.3     
  12 C12            3.5934    -0.4363     0.1750 C.3     
  13 C13            2.8922    -0.6316    -2.2151 C.3     
  14 C14           -2.4069    -2.6819     0.8144 C.2     
  15 S15           -3.9160    -1.7736     0.8590 S.3     
  16 C16           -5.0453    -3.0680     1.4293 C.3     
  17 N17           -2.3933    -3.9404     1.1541 N.2     
  18 C18           -0.5656     3.6812    -0.0583 C.3     
  19 H19            2.0911    -2.7208    -0.2664 H       
  20 H20           -2.0441    -0.0649     0.2642 H       
  21 H21            0.1175    -4.4172     1.5825 H       
  22 H22           -0.9386    -4.6660     0.1715 H       
  23 H23            0.8302    -4.7150    -0.0212 H       
  24 H24            2.3382     0.9632    -0.8770 H       
  25 H25            3.7429    -1.5151     0.2193 H       
  26 H26            4.5198     0.0465    -0.1362 H       
  27 H27            3.3052    -0.0687     1.1598 H       
  28 H28            2.1045    -0.4031    -2.9330 H       
  29 H29            3.8186    -0.1488    -2.5263 H       
  30 H30            3.0417    -1.7103    -2.1708 H       
  31 H31           -4.7184    -3.4320     2.4034 H       
  32 H32           -6.0527    -2.6604     1.5131 H       
  33 H33           -5.0447    -3.8913     0.7149 H       
  34 H34           -3.2140    -4.3768     1.4314 H       
  35 H35            0.4699     4.0174    -0.0051 H       
  36 H36           -0.9488     3.8424    -1.0659 H       
  37 H37           -1.1678     4.2453     0.6540 H       
@<TRIPOS>BOND
   1    1    2 1
   2    1    8 2
   3    1    9 1
   4    2    3 ar
   5    2    7 ar
   6    3    4 ar
   7    3   11 1
   8    4    5 ar
   9    4   19 1
  10    5    6 ar
  11    5   10 1
  12    6    7 ar
  13    6   14 1
  14    7   20 1
  15    9   18 1
  16   10   21 1
  17   10   22 1
  18   10   23 1
  19   11   12 1
  20   11   13 1
  21   11   24 1
  22   12   25 1
  23   12   26 1
  24   12   27 1
  25   13   28 1
  26   13   29 1
  27   13   30 1
  28   14   15 1
  29   14   17 2
  30   15   16 1
  31   16   31 1
  32   16   32 1
  33   16   33 1
  34   17   34 1
  35   18   35 1
  36   18   36 1
  37   18   37 1

#	End of record

