#	Name: ASD03330001
#	Creating user name:	WinNT
#	Creation time:	15. 06. 2019 20:36

#	Modifying user name:	WinNT
#	Modification time:	15. 06. 2019 20:36

#	Program:	/corina/corina34_cracker 3.40 0067  02.08.2006

@<TRIPOS>MOLECULE
ASD03330001
  49   52    0    0    0
SMALL
NO_CHARGES


@<TRIPOS>ATOM
   1 C1            -0.6004     0.6188    -2.9899 C.ar    
   2 C2            -1.9109     0.8598    -3.3633 C.ar    
   3 C3            -2.9499     0.3527    -2.6079 C.ar    
   4 C4            -2.6786    -0.4001    -1.4730 C.ar    
   5 C5            -1.3627    -0.6409    -1.1007 C.ar    
   6 C6            -0.3273    -0.1355    -1.8624 C.ar    
   7 N7            -3.7299    -0.9149    -0.7053 N.am    
   8 C8            -4.8847    -0.2284    -0.5974 C.2     
   9 N9            -5.9335    -0.7716     0.0518 N.am    
  10 C10           -7.0950    -0.0186     0.2580 C.ar    
  11 C11           -8.3336    -0.6415     0.2616 C.ar    
  12 C12           -9.4867     0.1119     0.4677 C.ar    
  13 C13           -9.3891     1.4876     0.6692 C.ar    
  14 C14           -8.1517     2.1003     0.6642 C.ar    
  15 C15           -7.0067     1.3527     0.4650 C.ar    
  16 C16          -10.8153    -0.5480     0.4723 C.ar    
  17 C17          -11.9618     0.2128     0.6790 C.ar    
  18 C18          -13.1988    -0.4134     0.6814 C.ar    
  19 C19          -13.2492    -1.7814     0.4769 C.ar    
  20 C20          -12.0646    -2.4843     0.2759 C.ar    
  21 N21          -10.8994    -1.8581     0.2736 N.ar    
  22 N22          -12.1069    -3.8582     0.0698 N.3     
  23 C23          -10.7514    -4.4060    -0.1210 C.3     
  24 C24          -10.5466    -5.5015     0.9463 C.3     
  25 C25          -11.9982    -5.9056     1.3155 C.3     
  26 C26          -12.7358    -4.5469     1.2170 C.3     
  27 O27           -4.9803     0.8810    -1.0858 O.2     
  28 Cl28           0.7033     1.2577    -3.9417 Cl      
  29 H29           -2.1214     1.4454    -4.2461 H       
  30 H30           -3.9725     0.5417    -2.8993 H       
  31 H31           -1.1491    -1.2258    -0.2183 H       
  32 H32            0.6963    -0.3229    -1.5735 H       
  33 H33           -3.6272    -1.7658    -0.2509 H       
  34 H34           -5.8833    -1.6844     0.3760 H       
  35 H35           -8.4041    -1.7077     0.1046 H       
  36 H36          -10.2815     2.0745     0.8290 H       
  37 H37           -8.0782     3.1664     0.8205 H       
  38 H38           -6.0413     1.8367     0.4620 H       
  39 H39          -11.8889     1.2789     0.8361 H       
  40 H40          -14.1039     0.1541     0.8400 H       
  41 H41          -14.1976    -2.2981     0.4735 H       
  42 H42          -10.6630    -4.8381    -1.1177 H       
  43 H43          -10.0108    -3.6171     0.0105 H       
  44 H44          -10.0048    -6.3501     0.5286 H       
  45 H45          -10.0253    -5.1002     1.8155 H       
  46 H46          -12.3992    -6.6205     0.5971 H       
  47 H47          -12.0469    -6.3037     2.3290 H       
  48 H48          -12.5925    -3.9702     2.1308 H       
  49 H49          -13.7979    -4.7045     1.0293 H       
@<TRIPOS>BOND
   1    1    2 ar
   2    1   28 1
   3    1    6 ar
   4    2    3 ar
   5    2   29 1
   6    3    4 ar
   7    3   30 1
   8    4    5 ar
   9    4    7 1
  10    5    6 ar
  11    5   31 1
  12    6   32 1
  13    7    8 am
  14    7   33 1
  15    8    9 am
  16    8   27 2
  17    9   10 1
  18    9   34 1
  19   10   11 ar
  20   10   15 ar
  21   11   12 ar
  22   11   35 1
  23   12   13 ar
  24   12   16 1
  25   13   14 ar
  26   13   36 1
  27   14   15 ar
  28   14   37 1
  29   15   38 1
  30   16   17 ar
  31   16   21 ar
  32   17   18 ar
  33   17   39 1
  34   18   19 ar
  35   18   40 1
  36   19   20 ar
  37   19   41 1
  38   20   21 ar
  39   20   22 1
  40   22   23 1
  41   22   26 1
  42   23   24 1
  43   23   42 1
  44   23   43 1
  45   24   25 1
  46   24   44 1
  47   24   45 1
  48   25   26 1
  49   25   46 1
  50   25   47 1
  51   26   48 1
  52   26   49 1

#	End of record

