#	Name: ASD01883315
#	Creating user name:	WinNT
#	Creation time:	15. 06. 2019 19:46

#	Modifying user name:	WinNT
#	Modification time:	15. 06. 2019 19:46

#	Program:	/corina/corina34_cracker 3.40 0067  02.08.2006

@<TRIPOS>MOLECULE
ASD01883315
  48   49    0    0    0
SMALL
NO_CHARGES


@<TRIPOS>ATOM
   1 N1            -0.0133     1.3365     0.0676 N.am    
   2 C2             0.0043    -0.0089     0.0799 C.2     
   3 C3            -1.2126    -0.7319     0.0810 C.2     
   4 C4            -2.4269    -0.0121     0.0691 C.2     
   5 C5            -2.3759     1.4006     0.0565 C.2     
   6 C6            -1.1822     2.0312     0.0617 C.2     
   7 O7             1.0680    -0.6050     0.0896 O.2     
   8 C8            -1.2120    -2.1639     0.0935 C.1     
   9 N9            -1.2115    -3.2998     0.1035 N.1     
  10 C10            1.2552     2.0694     0.0666 C.3     
  11 C11            1.7033     2.3114    -1.3762 C.3     
  12 C12            3.0281     3.0767    -1.3773 C.3     
  13 C13            4.1209     2.2054    -0.7549 C.3     
  14 C14            3.4132     3.4276    -2.8158 C.3     
  15 C15           -3.6838    -0.6983     0.0693 C.1     
  16 C16           -4.7142    -1.2609     0.0694 C.1     
  17 C17           -5.9710    -1.9472     0.0696 C.ar    
  18 C18           -7.1677    -1.2205     0.0577 C.ar    
  19 C19           -8.3732    -1.8839     0.0574 C.ar    
  20 C20           -8.4041    -3.2757     0.0690 C.ar    
  21 C21           -7.2166    -4.0022     0.0813 C.ar    
  22 C22           -6.0067    -3.3468     0.0758 C.ar    
  23 N23           -9.6260    -3.9428     0.0687 N.pl3   
  24 C24          -10.8742    -3.1852     0.1874 C.3     
  25 C25           -9.6635    -5.4025    -0.0504 C.3     
  26 H26           -3.2906     1.9747     0.0473 H       
  27 H27           -1.1550     3.1108     0.0523 H       
  28 H28            1.1224     3.0264     0.5712 H       
  29 H29            2.0127     1.4852     0.5891 H       
  30 H30            1.8361     1.3544    -1.8808 H       
  31 H31            0.9458     2.8956    -1.8987 H       
  32 H32            2.9190     3.9927    -0.7966 H       
  33 H33            4.2300     1.2894    -1.3355 H       
  34 H34            5.0648     2.7506    -0.7556 H       
  35 H35            3.8466     1.9554     0.2700 H       
  36 H36            2.6346     4.0484    -3.2592 H       
  37 H37            4.3570     3.9729    -2.8166 H       
  38 H38            3.5223     2.5117    -3.3965 H       
  39 H39           -7.1446    -0.1407     0.0491 H       
  40 H40           -9.2968    -1.3241     0.0486 H       
  41 H41           -7.2451    -5.0818     0.0909 H       
  42 H42           -5.0859    -3.9112     0.0850 H       
  43 H43          -11.2298    -2.9127    -0.8063 H       
  44 H44          -11.6250    -3.7978     0.6865 H       
  45 H45          -10.6967    -2.2814     0.7703 H       
  46 H46           -8.6553    -5.7790    -0.2232 H       
  47 H47          -10.0590    -5.8320     0.8700 H       
  48 H48          -10.3042    -5.6825    -0.8866 H       
@<TRIPOS>BOND
   1    1    2 am
   2    1   10 1
   3    1    6 1
   4    2    3 1
   5    2    7 2
   6    3    4 2
   7    3    8 1
   8    4    5 1
   9    4   15 1
  10    5    6 2
  11    5   26 1
  12    6   27 1
  13    8    9 3
  14   10   11 1
  15   10   28 1
  16   10   29 1
  17   11   12 1
  18   11   30 1
  19   11   31 1
  20   12   13 1
  21   12   14 1
  22   12   32 1
  23   13   33 1
  24   13   34 1
  25   13   35 1
  26   14   36 1
  27   14   37 1
  28   14   38 1
  29   15   16 3
  30   16   17 1
  31   17   18 ar
  32   17   22 ar
  33   18   19 ar
  34   18   39 1
  35   19   20 ar
  36   19   40 1
  37   20   21 ar
  38   20   23 1
  39   21   22 ar
  40   21   41 1
  41   22   42 1
  42   23   24 1
  43   23   25 1
  44   24   43 1
  45   24   44 1
  46   24   45 1
  47   25   46 1
  48   25   47 1
  49   25   48 1

#	End of record

