#	Name: ASD03092110
#	Creating user name:	WinNT
#	Creation time:	15. 06. 2019 20:32

#	Modifying user name:	WinNT
#	Modification time:	15. 06. 2019 20:32

#	Program:	/corina/corina34_cracker 3.40 0067  02.08.2006

@<TRIPOS>MOLECULE
ASD03092110
  50   53    0    0    0
SMALL
NO_CHARGES


@<TRIPOS>ATOM
   1 N1             0.1274     1.3350     0.0456 N.am    
   2 C2            -0.0120    -0.0276    -0.0083 C.2     
   3 C3            -1.3474    -0.2984    -0.0529 C.2     
   4 C4            -2.0353     0.9254    -0.0257 C.2     
   5 N5            -1.1556     1.8968     0.0391 N.2     
   6 N6            -3.4236     1.0822    -0.0564 N.pl3   
   7 C7            -3.9867     2.3518     0.0945 C.ar    
   8 C8            -5.2414     2.6244    -0.4356 C.ar    
   9 C9            -5.7954     3.8805    -0.2842 C.ar    
  10 C10           -5.1025     4.8661     0.3943 C.ar    
  11 C11           -3.2955     3.3431     0.7803 C.ar    
  12 C12            1.0838    -1.0205    -0.0168 C.ar    
  13 C13            1.2910     2.0129     0.1008 C.2     
  14 C14            0.9595    -2.2349     0.6680 C.ar    
  15 C15            2.0063    -3.1324     0.6330 C.ar    
  16 N16            3.1117    -2.8585    -0.0334 N.ar    
  17 C17            3.2700    -1.7262    -0.6920 C.ar    
  18 C18            2.2719    -0.7745    -0.7147 C.ar    
  19 C19            4.5567    -1.4717    -1.4340 C.3     
  20 C20           -3.8528     4.5983     0.9231 C.ar    
  21 N21            1.2905     3.3590     0.0354 N.am    
  22 O22            2.3406     1.4102     0.2095 O.2     
  23 C23            2.5553     4.0958     0.0954 C.3     
  24 C24            1.8860    -4.4434     1.3663 C.3     
  25 C25            2.5948     5.4848    -0.5449 C.3     
  26 C26            2.6045     5.3442     0.9786 C.3     
  27 C27           -7.1563     4.1773    -0.8594 C.3     
  28 F28           -8.1388     3.8852     0.0927 F       
  29 F29           -7.2308     5.5305    -1.2065 F       
  30 F30           -7.3625     3.3916    -1.9984 F       
  31 H31           -1.7962    -1.2795    -0.1011 H       
  32 H32           -3.9963     0.3095    -0.1825 H       
  33 H33           -5.7830     1.8550    -0.9660 H       
  34 H34           -5.5380     5.8475     0.5113 H       
  35 H35           -2.3218     3.1332     1.1976 H       
  36 H36            0.0578    -2.4655     1.2158 H       
  37 H37            2.4083     0.1500    -1.2562 H       
  38 H38            4.4674    -1.8440    -2.4545 H       
  39 H39            4.7587    -0.4007    -1.4543 H       
  40 H40            5.3748    -1.9862    -0.9298 H       
  41 H41           -3.3142     5.3706     1.4521 H       
  42 H42            0.4527     3.8401    -0.0514 H       
  43 H43            3.4574     3.4871     0.0332 H       
  44 H44            1.4569    -5.1933     0.7018 H       
  45 H45            2.8737    -4.7693     1.6923 H       
  46 H46            1.2403    -4.3158     2.2352 H       
  47 H47            3.5230     5.7901    -1.0281 H       
  48 H48            1.6798     5.8504    -1.0108 H       
  49 H49            1.6958     5.6173     1.5150 H       
  50 H50            3.5390     5.5569     1.4977 H       
@<TRIPOS>BOND
   1    1    2 1
   2    1   13 am
   3    1    5 1
   4    2    3 2
   5    2   12 1
   6    3    4 1
   7    3   31 1
   8    4    5 2
   9    4    6 1
  10    6    7 1
  11    6   32 1
  12    7    8 ar
  13    7   11 ar
  14    8    9 ar
  15    8   33 1
  16    9   10 ar
  17    9   27 1
  18   10   20 ar
  19   10   34 1
  20   11   20 ar
  21   11   35 1
  22   12   14 ar
  23   12   18 ar
  24   13   21 am
  25   13   22 2
  26   14   15 ar
  27   14   36 1
  28   15   16 ar
  29   15   24 1
  30   16   17 ar
  31   17   18 ar
  32   17   19 1
  33   18   37 1
  34   19   38 1
  35   19   39 1
  36   19   40 1
  37   20   41 1
  38   21   23 1
  39   21   42 1
  40   23   25 1
  41   23   26 1
  42   23   43 1
  43   24   44 1
  44   24   45 1
  45   24   46 1
  46   25   26 1
  47   25   47 1
  48   25   48 1
  49   26   49 1
  50   26   50 1
  51   27   28 1
  52   27   29 1
  53   27   30 1

#	End of record

