#	Name: ASD06170186
#	Creating user name:	WinNT
#	Creation time:	15. 06. 2019 21:05

#	Modifying user name:	WinNT
#	Modification time:	15. 06. 2019 21:05

#	Program:	/corina/corina34_cracker 3.40 0067  02.08.2006

@<TRIPOS>MOLECULE
ASD06170186
  71   76    0    0    0
SMALL
NO_CHARGES


@<TRIPOS>ATOM
   1 C1            -0.0392     1.2797     0.7343 C.ar    
   2 C2            -0.0650    -0.0803     1.0382 C.ar    
   3 C3             1.1272    -0.7354     1.2906 C.ar    
   4 C4             2.3084    -0.0085     1.2310 C.ar    
   5 C5             2.2610     1.3381     0.9237 C.ar    
   6 N6             1.1116     1.9382     0.6875 N.ar    
   7 C7            -1.2921     3.3412     0.1535 C.2     
   8 C8            -1.3080     1.9952     0.4551 C.2     
   9 C9            -2.5315     1.3043     0.4964 C.2     
  10 C10           -3.7043     2.0028     0.2295 C.2     
  11 C11           -3.6270     3.3871    -0.0750 C.2     
  12 N12           -2.4336     4.0080    -0.1033 N.am    
  13 C13           -5.0053     1.3172     0.2618 C.2     
  14 O14           -5.0535     0.1108     0.4109 O.2     
  15 N15           -6.1439     2.0255     0.1262 N.am    
  16 C16           -2.3750     5.4373    -0.4193 C.3     
  17 C17           -2.2256     5.6170    -1.9080 C.ar    
  18 C18           -3.3483     5.7225    -2.7076 C.ar    
  19 C19           -3.2113     5.8872    -4.0732 C.ar    
  20 C20           -1.9516     5.9470    -4.6393 C.ar    
  21 C21           -0.8289     5.8424    -3.8396 C.ar    
  22 C22           -0.9658     5.6820    -2.4734 C.ar    
  23 O23           -4.6443     4.0148    -0.3119 O.2     
  24 C24           -7.3683     1.3650     0.0263 C.ar    
  25 C25           -7.3966     0.0167    -0.3122 C.ar    
  26 C26           -8.6162    -0.6286    -0.4080 C.ar    
  27 C27           -9.7752     0.1029    -0.1599 C.ar    
  28 C28           -9.6701     1.4440     0.1725 C.ar    
  29 N29           -8.4898     2.0272     0.2601 N.ar    
  30 O30          -10.9951    -0.4916    -0.2434 O.3     
  31 N31          -12.1329    -2.9716     2.8495 N.ar    
  32 C32          -11.0144    -2.2896     2.9276 C.ar    
  33 C33          -10.5982    -1.4454     1.9059 C.ar    
  34 C34          -11.3754    -1.3092     0.7692 C.ar    
  35 C35          -12.5778    -2.0479     0.6962 C.ar    
  36 C36          -13.4177    -1.9621    -0.4242 C.ar    
  37 C37          -14.5715    -2.6905    -0.4609 C.ar    
  38 C38          -14.9257    -3.5231     0.6103 C.ar    
  39 C39          -14.1266    -3.6250     1.7124 C.ar    
  40 C40          -12.9325    -2.8882     1.7795 C.ar    
  41 O41          -16.0800    -4.2377     0.5508 O.3     
  42 C42          -16.3874    -5.0683     1.6722 C.3     
  43 O43          -15.3857    -2.6075    -1.5468 O.3     
  44 C44          -14.9699    -1.7417    -2.6048 C.3     
  45 H45           -1.0025    -0.6151     1.0764 H       
  46 H46            1.1386    -1.7887     1.5290 H       
  47 H47            3.2555    -0.4907     1.4233 H       
  48 H48            3.1782     1.9064     0.8769 H       
  49 H49           -0.3503     3.8692     0.1273 H       
  50 H50           -2.5603     0.2505     0.7306 H       
  51 H51           -6.1118     2.9945     0.0981 H       
  52 H52           -3.2928     5.9212    -0.0852 H       
  53 H53           -1.5216     5.8869     0.0884 H       
  54 H54           -4.3325     5.6758    -2.2653 H       
  55 H55           -4.0885     5.9689    -4.6980 H       
  56 H56           -1.8445     6.0750    -5.7063 H       
  57 H57            0.1553     5.8887    -4.2819 H       
  58 H58           -0.0887     5.6040    -1.8482 H       
  59 H59           -6.4780    -0.5198    -0.4983 H       
  60 H60           -8.6686    -1.6751    -0.6695 H       
  61 H61          -10.5644     2.0176     0.3663 H       
  62 H62          -10.4002    -2.3876     3.8106 H       
  63 H63           -9.6727    -0.8966     1.9990 H       
  64 H64          -13.1529    -1.3228    -1.2534 H       
  65 H65          -14.4116    -4.2701     2.5303 H       
  66 H66          -15.5943    -5.8036     1.8080 H       
  67 H67          -16.4697    -4.4531     2.5682 H       
  68 H68          -17.3326    -5.5817     1.4959 H       
  69 H69          -14.8808    -0.7232    -2.2270 H       
  70 H70          -14.0045    -2.0731    -2.9873 H       
  71 H71          -15.7072    -1.7684    -3.4072 H       
@<TRIPOS>BOND
   1    1    2 ar
   2    1    6 ar
   3    1    8 1
   4    2    3 ar
   5    2   45 1
   6    3    4 ar
   7    3   46 1
   8    4    5 ar
   9    4   47 1
  10    5    6 ar
  11    5   48 1
  12    7    8 2
  13    7   12 1
  14    7   49 1
  15    8    9 1
  16    9   10 2
  17    9   50 1
  18   10   11 1
  19   10   13 1
  20   11   12 am
  21   11   23 2
  22   12   16 1
  23   13   14 2
  24   13   15 am
  25   15   24 1
  26   15   51 1
  27   16   17 1
  28   16   52 1
  29   16   53 1
  30   17   18 ar
  31   17   22 ar
  32   18   19 ar
  33   18   54 1
  34   19   20 ar
  35   19   55 1
  36   20   21 ar
  37   20   56 1
  38   21   22 ar
  39   21   57 1
  40   22   58 1
  41   24   25 ar
  42   24   29 ar
  43   25   26 ar
  44   25   59 1
  45   26   27 ar
  46   26   60 1
  47   27   28 ar
  48   27   30 1
  49   28   29 ar
  50   28   61 1
  51   30   34 1
  52   31   32 ar
  53   31   40 ar
  54   32   33 ar
  55   32   62 1
  56   33   34 ar
  57   33   63 1
  58   34   35 ar
  59   35   36 ar
  60   35   40 ar
  61   36   37 ar
  62   36   64 1
  63   37   38 ar
  64   37   43 1
  65   38   39 ar
  66   38   41 1
  67   39   40 ar
  68   39   65 1
  69   41   42 1
  70   42   66 1
  71   42   67 1
  72   42   68 1
  73   43   44 1
  74   44   69 1
  75   44   70 1
  76   44   71 1

#	End of record

