#	Name: ASD01914312
#	Creating user name:	WinNT
#	Creation time:	15. 06. 2019 20:03

#	Modifying user name:	WinNT
#	Modification time:	15. 06. 2019 20:03

#	Program:	/corina/corina34_cracker 3.40 0067  02.08.2006

@<TRIPOS>MOLECULE
ASD01914312
  61   65    0    0    0
SMALL
NO_CHARGES


@<TRIPOS>ATOM
   1 C1            -0.0595     1.5368     0.2071 C.2     
   2 C2            -0.0158     0.0432     0.0111 C.3     
   3 N3             1.0859     2.2464     0.2366 N.am    
   4 C4             1.0658     3.7047     0.4268 C.3     
   5 C5             2.0297     4.0607     1.5635 C.3     
   6 N6             3.3525     3.4900     1.2763 N.3     
   7 C7             3.3010     2.0226     1.2297 C.3     
   8 C8             2.3895     1.5823     0.0854 C.3     
   9 C9             4.2946     3.9263     2.2006 C.ar    
  10 C10            5.6132     3.4941     2.0975 C.ar    
  11 C11            6.5401     3.9361     3.0238 C.ar    
  12 C12            6.1160     4.7987     4.0262 C.ar    
  13 C13            4.7922     5.1870     4.0687 C.ar    
  14 N14            3.9305     4.7536     3.1680 N.ar    
  15 C15           -2.2082    -0.6066    -1.0621 C.2     
  16 N16           -3.3457    -1.1277    -0.6631 N.2     
  17 C17           -3.2859    -1.3587     0.6609 C.2     
  18 C18           -2.0611    -0.9649     1.1027 C.2     
  19 N19           -1.3802    -0.4902     0.0164 N.pl3   
  20 C20           -1.8773    -0.2168    -2.4501 C.ar    
  21 C21           -0.8262     0.6668    -2.6980 C.ar    
  22 C22           -0.5227     1.0264    -3.9950 C.ar    
  23 C23           -1.2583     0.5134    -5.0484 C.ar    
  24 C24           -2.3017    -0.3631    -4.8093 C.ar    
  25 C25           -2.6114    -0.7355    -3.5174 C.ar    
  26 C26           -4.3671    -1.9412     1.4937 C.ar    
  27 C27           -5.5797    -2.3035     0.9101 C.ar    
  28 C28           -6.5829    -2.8446     1.6868 C.ar    
  29 C29           -6.3856    -3.0285     3.0485 C.ar    
  30 C30           -5.1790    -2.6686     3.6326 C.ar    
  31 C31           -4.1700    -2.1323     2.8600 C.ar    
  32 O32           -7.3761    -3.5615     3.8113 O.3     
  33 C33           -7.1058    -3.7230     5.2052 C.3     
  34 O34           -1.1258     2.1008     0.3334 O.2     
  35 H35            0.4595    -0.1842    -0.9432 H       
  36 H36            0.5558    -0.4127     0.8194 H       
  37 H37            1.3843     4.1982    -0.4915 H       
  38 H38            0.0574     4.0261     0.6876 H       
  39 H39            2.1112     5.1446     1.6453 H       
  40 H40            1.6531     3.6521     2.5012 H       
  41 H41            4.3045     1.6284     1.0694 H       
  42 H42            2.9067     1.6424     2.1721 H       
  43 H43            2.2559     0.5011     0.1207 H       
  44 H44            2.8377     1.8678    -0.8663 H       
  45 H45            5.9087     2.8224     1.3051 H       
  46 H46            7.5705     3.6172     2.9692 H       
  47 H47            6.8149     5.1618     4.7652 H       
  48 H48            4.4581     5.8577     4.8465 H       
  49 H49           -1.6964    -1.0171     2.1180 H       
  50 H50           -0.2517     1.0685    -1.8765 H       
  51 H51            0.2906     1.7102    -4.1882 H       
  52 H52           -1.0172     0.7986    -6.0618 H       
  53 H53           -2.8724    -0.7598    -5.6359 H       
  54 H54           -3.4233    -1.4232    -3.3323 H       
  55 H55           -5.7339    -2.1603    -0.1492 H       
  56 H56           -7.5229    -3.1253     1.2352 H       
  57 H57           -5.0286    -2.8125     4.6924 H       
  58 H58           -3.2297    -1.8566     3.3143 H       
  59 H59           -6.2485    -4.3836     5.3349 H       
  60 H60           -6.8861    -2.7514     5.6477 H       
  61 H61           -7.9767    -4.1573     5.6963 H       
@<TRIPOS>BOND
   1    1    2 1
   2    1    3 am
   3    1   34 2
   4    2   19 1
   5    2   35 1
   6    2   36 1
   7    3    4 1
   8    3    8 1
   9    4    5 1
  10    4   37 1
  11    4   38 1
  12    5    6 1
  13    5   39 1
  14    5   40 1
  15    6    7 1
  16    6    9 1
  17    7    8 1
  18    7   41 1
  19    7   42 1
  20    8   43 1
  21    8   44 1
  22    9   10 ar
  23    9   14 ar
  24   10   11 ar
  25   10   45 1
  26   11   12 ar
  27   11   46 1
  28   12   13 ar
  29   12   47 1
  30   13   14 ar
  31   13   48 1
  32   15   16 2
  33   15   19 1
  34   15   20 1
  35   16   17 1
  36   17   18 2
  37   17   26 1
  38   18   19 1
  39   18   49 1
  40   20   21 ar
  41   20   25 ar
  42   21   22 ar
  43   21   50 1
  44   22   23 ar
  45   22   51 1
  46   23   24 ar
  47   23   52 1
  48   24   25 ar
  49   24   53 1
  50   25   54 1
  51   26   27 ar
  52   26   31 ar
  53   27   28 ar
  54   27   55 1
  55   28   29 ar
  56   28   56 1
  57   29   30 ar
  58   29   32 1
  59   30   31 ar
  60   30   57 1
  61   31   58 1
  62   32   33 1
  63   33   59 1
  64   33   60 1
  65   33   61 1

#	End of record

