#	Name: ASD03090336
#	Creating user name:	WinNT
#	Creation time:	15. 06. 2019 20:28

#	Modifying user name:	WinNT
#	Modification time:	15. 06. 2019 20:28

#	Program:	/corina/corina34_cracker 3.40 0067  02.08.2006

@<TRIPOS>MOLECULE
ASD03090336
  48   50    0    0    0
SMALL
NO_CHARGES


@<TRIPOS>ATOM
   1 C1             0.1939     1.0395     0.8762 C.ar    
   2 N2            -0.9194     1.4663     1.4411 N.ar    
   3 C3            -2.0660     0.8394     1.2788 C.ar    
   4 C4            -2.1406    -0.3117     0.4941 C.ar    
   5 C5            -0.9767    -0.7889    -0.1181 C.ar    
   6 C6             0.2020    -0.0904     0.0788 C.ar    
   7 C7            -3.4290    -1.0163     0.3129 C.2     
   8 N8            -6.9352    -1.2510     0.4074 N.pl3   
   9 C9            -7.4346    -0.0707     0.9676 C.ar    
  10 C10           -8.6624     0.4294     0.5548 C.ar    
  11 C11           -9.1543     1.5966     1.1107 C.ar    
  12 C12           -8.4215     2.2659     2.0792 C.ar    
  13 C13           -7.1973     1.7677     2.4906 C.ar    
  14 C14           -6.7056     0.5994     1.9418 C.ar    
  15 N15           -4.6258    -0.5166     0.5479 N.2     
  16 C16           -5.5572    -1.4319     0.2741 C.2     
  17 N17           -4.9692    -2.5305    -0.1400 N.2     
  18 N18           -3.5867    -2.2842    -0.1286 N.pl3   
  19 C19           -2.5254    -3.2189    -0.5111 C.3     
  20 C20           -2.2833    -3.1261    -2.0190 C.3     
  21 C21           -1.1916    -4.0876    -2.4125 C.2     
  22 N22           -0.8064    -4.1792    -3.7008 N.am    
  23 C23            0.2549    -5.1138    -4.0834 C.3     
  24 O24           -0.6596    -4.7789    -1.5699 O.2     
  25 C25           -1.4490    -3.3441    -4.7186 C.3     
  26 F26           -8.9028     3.4058     2.6216 F       
  27 F27          -10.3485     2.0847     0.7098 F       
  28 C28            1.4764     1.7991     1.0984 C.3     
  29 F29            1.2537     2.8319     2.0154 F       
  30 F30            2.4513     0.9310     1.6015 F       
  31 F31            1.9147     2.3394    -0.1153 F       
  32 H32           -2.9564     1.2194     1.7576 H       
  33 H33           -0.9982    -1.6771    -0.7322 H       
  34 H34            1.1200    -0.4292    -0.3782 H       
  35 H35           -7.5462    -1.9438     0.1114 H       
  36 H36           -9.2325    -0.0921    -0.1998 H       
  37 H37           -6.6279     2.2909     3.2446 H       
  38 H38           -5.7504     0.2116     2.2638 H       
  39 H39           -1.6084    -2.9647     0.0204 H       
  40 H40           -2.8254    -4.2345    -0.2531 H       
  41 H41           -3.2003    -3.3803    -2.5506 H       
  42 H42           -1.9834    -2.1105    -2.2771 H       
  43 H43           -0.0451    -6.1295    -3.8253 H       
  44 H44            0.4274    -5.0478    -5.1576 H       
  45 H45            1.1719    -4.8596    -3.5518 H       
  46 H46           -0.9058    -2.4039    -4.8132 H       
  47 H47           -1.4406    -3.8664    -5.6754 H       
  48 H48           -2.4788    -3.1409    -4.4247 H       
@<TRIPOS>BOND
   1    1    2 ar
   2    1   28 1
   3    1    6 ar
   4    2    3 ar
   5    3    4 ar
   6    3   32 1
   7    4    5 ar
   8    4    7 1
   9    5    6 ar
  10    5   33 1
  11    6   34 1
  12    7   15 2
  13    7   18 1
  14    8    9 1
  15    8   16 1
  16    8   35 1
  17    9   10 ar
  18    9   14 ar
  19   10   11 ar
  20   10   36 1
  21   11   12 ar
  22   11   27 1
  23   12   13 ar
  24   12   26 1
  25   13   14 ar
  26   13   37 1
  27   14   38 1
  28   15   16 1
  29   16   17 2
  30   17   18 1
  31   18   19 1
  32   19   20 1
  33   19   39 1
  34   19   40 1
  35   20   21 1
  36   20   41 1
  37   20   42 1
  38   21   22 am
  39   21   24 2
  40   22   23 1
  41   22   25 1
  42   23   43 1
  43   23   44 1
  44   23   45 1
  45   25   46 1
  46   25   47 1
  47   25   48 1
  48   28   29 1
  49   28   30 1
  50   28   31 1

#	End of record

