#	Name: ASD01412098
#	Creating user name:	WinNT
#	Creation time:	15. 06. 2019 19:20

#	Modifying user name:	WinNT
#	Modification time:	15. 06. 2019 19:20

#	Program:	/corina/corina34_cracker 3.40 0067  02.08.2006

@<TRIPOS>MOLECULE
ASD01412098
  85   91    0    0    0
SMALL
NO_CHARGES


@<TRIPOS>ATOM
   1 C1             1.3303     3.8515    -2.6584 C.ar    
   2 C2             0.6910     2.5814    -2.6822 C.ar    
   3 C3            -0.5483     2.7560    -3.3238 C.2     
   4 C4            -0.6390     4.0584    -3.6674 C.2     
   5 N5             0.4842     4.7431    -3.2514 N.pl3   
   6 C6            -1.7145     4.7638    -4.3983 C.ar    
   7 C7            -1.3383     5.6359    -5.4290 C.ar    
   8 C8             0.1040     5.6845    -5.8388 C.3     
   9 C9             0.9887     6.5120    -4.8981 C.3     
  10 C10            0.6557     6.1807    -3.4415 C.3     
  11 C11           -1.5814     1.6892    -3.5797 C.3     
  12 C12           -0.9718     0.5867    -4.4478 C.3     
  13 C13           -2.0207    -0.4965    -4.7077 C.3     
  14 C14           -2.4798    -1.0919    -3.3752 C.3     
  15 C15           -3.0894     0.0106    -2.5070 C.3     
  16 C16           -2.0405     1.0938    -2.2472 C.3     
  17 C17            2.5900     4.0017    -2.0923 C.ar    
  18 C18            3.1829     2.8545    -1.5537 C.ar    
  19 C19            2.5427     1.6102    -1.5779 C.ar    
  20 C20            1.3032     1.4440    -2.1322 C.ar    
  21 C21            4.5223     2.9595    -0.9427 C.2     
  22 N22            5.1112     1.8667    -0.4181 N.am    
  23 O23            5.0943     4.0320    -0.9126 O.2     
  24 C24            6.4862     1.9441     0.0816 C.3     
  25 C25            6.5710     2.9442     1.2058 C.2     
  26 C26            6.9491     0.5568     0.5724 C.3     
  27 C27            7.7097    -0.0399    -0.6378 C.3     
  28 C28            8.4475     1.1918    -1.2189 C.3     
  29 C29            7.4387     2.3491    -1.0570 C.3     
  30 N30            5.5701     3.0349     2.1038 N.am    
  31 O31            7.5398     3.6673     1.3024 O.2     
  32 C32            5.5780     4.0537     3.0563 C.ar    
  33 C33            5.0374     3.8276     4.3186 C.ar    
  34 C34            5.0434     4.8297     5.2616 C.ar    
  35 C35            5.5946     6.0784     4.9495 C.ar    
  36 C36            6.1374     6.3013     3.6783 C.ar    
  37 C37            6.1318     5.2916     2.7433 C.ar    
  38 C38            5.6030     7.1518     5.9530 C.2     
  39 C39            6.1354     8.3559     5.6497 C.2     
  40 C40            6.1435     9.3916     6.6179 C.2     
  41 O41            5.6710     9.1960     7.7217 O.2     
  42 O42            6.6752    10.5942     6.3150 O.3     
  43 N43           -2.9935     4.5987    -4.0973 N.ar    
  44 C44           -3.9090     5.3030    -4.7414 C.ar    
  45 C45           -3.5304     6.2089    -5.7175 C.ar    
  46 N46           -2.2548     6.3575    -6.0386 N.ar    
  47 H47            0.4903     4.6658    -5.8730 H       
  48 H48            0.1670     6.1108    -6.8400 H       
  49 H49            2.0365     6.2826    -5.0917 H       
  50 H50            0.8130     7.5729    -5.0761 H       
  51 H51           -0.2655     6.6913    -3.1610 H       
  52 H52            1.4657     6.5311    -2.8017 H       
  53 H53           -2.4359     2.1272    -4.0956 H       
  54 H54           -0.6447     1.0109    -5.3971 H       
  55 H55           -0.1173     0.1487    -3.9319 H       
  56 H56           -2.8751    -0.0585    -5.2236 H       
  57 H57           -1.5864    -1.2819    -5.3262 H       
  58 H58           -3.2271    -1.8635    -3.5603 H       
  59 H59           -1.6253    -1.5299    -2.8593 H       
  60 H60           -3.9439     0.4486    -3.0229 H       
  61 H61           -3.4165    -0.4136    -1.5577 H       
  62 H62           -1.1861     0.6558    -1.7313 H       
  63 H63           -2.4749     1.8792    -1.6287 H       
  64 H64            3.0887     4.9594    -2.0694 H       
  65 H65            3.0424     0.7556    -1.1461 H       
  66 H66            0.8167     0.4799    -2.1460 H       
  67 H67            4.6247     1.0288    -0.3713 H       
  68 H68            7.6150     0.6580     1.4293 H       
  69 H69            6.0900    -0.0640     0.8268 H       
  70 H70            8.4216    -0.7979    -0.3110 H       
  71 H71            7.0125    -0.4521    -1.3672 H       
  72 H72            9.3554     1.3955    -0.6512 H       
  73 H73            8.6819     1.0344    -2.2717 H       
  74 H74            6.8780     2.4877    -1.9814 H       
  75 H75            7.9636     3.2683    -0.7969 H       
  76 H76            4.8442     2.3917     2.0877 H       
  77 H77            4.6121     2.8642     4.5582 H       
  78 H78            4.6233     4.6534     6.2408 H       
  79 H79            6.5633     7.2631     3.4331 H       
  80 H80            6.5506     5.4625     1.7626 H       
  81 H81            5.1835     6.9782     6.9330 H       
  82 H82            6.5548     8.5295     4.6698 H       
  83 H83            6.6350    11.2353     7.0378 H       
  84 H84           -4.9546     5.1709    -4.5056 H       
  85 H85           -4.2817     6.7994    -6.2206 H       
@<TRIPOS>BOND
   1    1    2 ar
   2    1   17 ar
   3    1    5 1
   4    2    3 1
   5    2   20 ar
   6    3    4 2
   7    3   11 1
   8    4    5 1
   9    4    6 1
  10    5   10 1
  11    6    7 ar
  12    6   43 ar
  13    7    8 1
  14    7   46 ar
  15    8    9 1
  16    8   47 1
  17    8   48 1
  18    9   10 1
  19    9   49 1
  20    9   50 1
  21   10   51 1
  22   10   52 1
  23   11   12 1
  24   11   16 1
  25   11   53 1
  26   12   13 1
  27   12   54 1
  28   12   55 1
  29   13   14 1
  30   13   56 1
  31   13   57 1
  32   14   15 1
  33   14   58 1
  34   14   59 1
  35   15   16 1
  36   15   60 1
  37   15   61 1
  38   16   62 1
  39   16   63 1
  40   17   18 ar
  41   17   64 1
  42   18   19 ar
  43   18   21 1
  44   19   20 ar
  45   19   65 1
  46   20   66 1
  47   21   22 am
  48   21   23 2
  49   22   24 1
  50   22   67 1
  51   24   25 1
  52   24   26 1
  53   24   29 1
  54   25   30 am
  55   25   31 2
  56   26   27 1
  57   26   68 1
  58   26   69 1
  59   27   28 1
  60   27   70 1
  61   27   71 1
  62   28   29 1
  63   28   72 1
  64   28   73 1
  65   29   74 1
  66   29   75 1
  67   30   32 1
  68   30   76 1
  69   32   33 ar
  70   32   37 ar
  71   33   34 ar
  72   33   77 1
  73   34   35 ar
  74   34   78 1
  75   35   36 ar
  76   35   38 1
  77   36   37 ar
  78   36   79 1
  79   37   80 1
  80   38   39 2
  81   38   81 1
  82   39   40 1
  83   39   82 1
  84   40   41 2
  85   40   42 1
  86   42   83 1
  87   43   44 ar
  88   44   45 ar
  89   44   84 1
  90   45   46 ar
  91   45   85 1

#	End of record

