#	Name: ASD01180189
#	Creating user name:	WinNT
#	Creation time:	15. 06. 2019 19:06

#	Modifying user name:	WinNT
#	Modification time:	15. 06. 2019 19:06

#	Program:	/corina/corina34_cracker 3.40 0067  02.08.2006

@<TRIPOS>MOLECULE
ASD01180189
  64   66    0    0    0
SMALL
NO_CHARGES


@<TRIPOS>ATOM
   1 C1             0.5829     1.7861    -1.8247 C.ar    
   2 C2             0.6518     0.4112    -1.7286 C.ar    
   3 C3             1.1358    -0.1799    -0.5631 C.ar    
   4 C4             1.5476     0.6218     0.4992 C.ar    
   5 C5             1.4744     1.9961     0.3923 C.ar    
   6 C6             0.9932     2.5774    -0.7667 C.ar    
   7 C7             1.2117    -1.6579    -0.4538 C.ar    
   8 C8             1.9248    -2.3931    -1.3984 C.ar    
   9 C9             1.9921    -3.7676    -1.2920 C.ar    
  10 C10            1.3530    -4.4152    -0.2501 C.ar    
  11 C11            0.6437    -3.6902     0.6904 C.ar    
  12 C12            0.5750    -2.3149     0.5971 C.ar    
  13 C13            1.4292    -5.9162    -0.1397 C.3     
  14 C14            2.4871    -6.2982     0.8975 C.3     
  15 N15            0.1263    -6.4422     0.2751 N.pl3   
  16 C16           -0.8462    -6.7094    -0.6735 C.ar    
  17 N17           -1.9926    -7.2596    -0.2974 N.ar    
  18 C18           -2.9456    -7.5313    -1.1645 C.ar    
  19 C19           -2.7737    -7.2449    -2.5195 C.ar    
  20 C20           -1.5700    -6.6623    -2.9455 C.ar    
  21 C21           -0.6088    -6.3911    -2.0097 C.ar    
  22 C22           -3.8418    -7.5506    -3.4903 C.2     
  23 N23           -4.9937    -8.1105    -3.0708 N.am    
  24 O24           -3.6827    -7.2975    -4.6689 O.2     
  25 C25           -6.0543    -8.4141    -4.0348 C.3     
  26 C26           -7.2442    -9.0392    -3.3039 C.3     
  27 C27           -8.3352    -9.3515    -4.2955 C.2     
  28 O28           -9.4824    -9.9091    -3.8777 O.3     
  29 O29           -8.1771    -9.0999    -5.4667 O.2     
  30 C30            2.6642    -7.8178     0.9096 C.3     
  31 C31            3.2415    -8.2747    -0.4316 C.3     
  32 C32            3.6208    -8.2109     2.0371 C.3     
  33 C33            0.2040    -0.4495    -2.8818 C.3     
  34 H34            0.2121     2.2453    -2.7292 H       
  35 H35            1.9232     0.1689     1.4049 H       
  36 H36            1.7931     2.6185     1.2153 H       
  37 H37            0.9380     3.6530    -0.8463 H       
  38 H38            2.4236    -1.8885    -2.2127 H       
  39 H39            2.5445    -4.3385    -2.0236 H       
  40 H40            0.1465    -4.2009     1.5018 H       
  41 H41            0.0209    -1.7498     1.3320 H       
  42 H42            1.7001    -6.3384    -1.1074 H       
  43 H43            3.4346    -5.8240     0.6417 H       
  44 H44            2.1671    -5.9618     1.8837 H       
  45 H45           -0.0550    -6.6032     1.2143 H       
  46 H46           -3.8674    -7.9796    -0.8244 H       
  47 H47           -1.4076    -6.4292    -3.9875 H       
  48 H48            0.3284    -5.9430    -2.3051 H       
  49 H49           -5.1206    -8.3125    -2.1306 H       
  50 H50           -6.3721    -7.4949    -4.5267 H       
  51 H51           -5.6777    -9.1140    -4.7808 H       
  52 H52           -6.9263    -9.9584    -2.8119 H       
  53 H53           -7.6207    -8.3393    -2.5578 H       
  54 H54          -10.1527   -10.0910    -4.5505 H       
  55 H55            1.6975    -8.2950     1.0705 H       
  56 H56            4.2320    -7.8404    -0.5676 H       
  57 H57            3.3169    -9.3620    -0.4433 H       
  58 H58            2.5871    -7.9471    -1.2394 H       
  59 H59            3.2095    -7.8854     2.9926 H       
  60 H60            3.7470    -9.2935     2.0457 H       
  61 H61            4.5876    -7.7337     1.8762 H       
  62 H62            1.0380    -0.6018    -3.5668 H       
  63 H63           -0.1371    -1.4137    -2.5045 H       
  64 H64           -0.6129     0.0443    -3.4080 H       
@<TRIPOS>BOND
   1    1    2 ar
   2    1    6 ar
   3    1   34 1
   4    2    3 ar
   5    2   33 1
   6    3    4 ar
   7    3    7 1
   8    4    5 ar
   9    4   35 1
  10    5    6 ar
  11    5   36 1
  12    6   37 1
  13    7    8 ar
  14    7   12 ar
  15    8    9 ar
  16    8   38 1
  17    9   10 ar
  18    9   39 1
  19   10   11 ar
  20   10   13 1
  21   11   12 ar
  22   11   40 1
  23   12   41 1
  24   13   14 1
  25   13   15 1
  26   13   42 1
  27   14   30 1
  28   14   43 1
  29   14   44 1
  30   15   16 1
  31   15   45 1
  32   16   17 ar
  33   16   21 ar
  34   17   18 ar
  35   18   19 ar
  36   18   46 1
  37   19   20 ar
  38   19   22 1
  39   20   21 ar
  40   20   47 1
  41   21   48 1
  42   22   23 am
  43   22   24 2
  44   23   25 1
  45   23   49 1
  46   25   26 1
  47   25   50 1
  48   25   51 1
  49   26   27 1
  50   26   52 1
  51   26   53 1
  52   27   28 1
  53   27   29 2
  54   28   54 1
  55   30   31 1
  56   30   32 1
  57   30   55 1
  58   31   56 1
  59   31   57 1
  60   31   58 1
  61   32   59 1
  62   32   60 1
  63   32   61 1
  64   33   62 1
  65   33   63 1
  66   33   64 1

#	End of record

