#	Name: ASD04590591
#	Creating user name:	WinNT
#	Creation time:	15. 06. 2019 20:51

#	Modifying user name:	WinNT
#	Modification time:	15. 06. 2019 20:51

#	Program:	/corina/corina34_cracker 3.40 0067  02.08.2006

@<TRIPOS>MOLECULE
ASD04590591
  72   74    0    0    0
SMALL
NO_CHARGES


@<TRIPOS>ATOM
   1 C1             3.0467     0.0900    -1.9912 C.2     
   2 C2             2.1944     1.0131    -2.8234 C.3     
   3 N3             5.4350     2.1766     2.1726 N.ar    
   4 C4             5.1057     3.3352     2.7129 C.ar    
   5 C5             3.8983     3.9463     2.3907 C.ar    
   6 C6             3.0516     3.3150     1.5008 C.ar    
   7 C7             3.4369     2.0924     0.9549 C.ar    
   8 C8             2.4891     1.4165    -0.0022 C.3     
   9 N9             3.1706     0.2994    -0.6656 N.am    
  10 C10            3.9951    -0.5839     0.1757 C.3     
  11 C11            5.1496     0.2440     0.7375 C.3     
  12 C12            4.6483     1.5460     1.3075 C.ar    
  13 N13            5.9729     3.9496     3.6119 N.pl3   
  14 C14            7.1237     3.2957     4.0215 C.ar    
  15 N15            7.9849     3.9411     4.7911 N.ar    
  16 C16            9.1005     3.3472     5.2045 C.ar    
  17 C17            9.3418     2.0176     4.8037 C.ar    
  18 C18            8.4073     1.3802     3.9938 C.ar    
  19 N19            7.3206     2.0427     3.6326 N.ar    
  20 N20           10.1484     3.7608     5.9892 N.pl3   
  21 C21           10.6263     1.6298     5.4004 C.ar    
  22 C22           11.0814     2.7471     6.1238 C.ar    
  23 C23           12.2922     2.6516     6.7966 C.ar    
  24 C24           11.4074     0.4753     5.3879 C.ar    
  25 C25           12.5972     0.4719     6.0854 C.ar    
  26 N26           12.9958     1.5382     6.7557 N.ar    
  27 C27           10.2633     5.0883     6.5980 C.3     
  28 C28           10.2691     6.1540     5.5002 C.3     
  29 C29           10.3891     7.5405     6.1360 C.3     
  30 C30            9.2012     7.7775     7.0706 C.3     
  31 C31            9.1954     6.7118     8.1684 C.3     
  32 C32            9.0754     5.3253     7.5326 C.3     
  33 C33            9.3212     9.1640     7.7064 C.3     
  34 O34            2.2218     0.5867    -4.1870 O.3     
  35 O35            3.6171    -0.8442    -2.5135 O.2     
  36 H36            1.1684     0.9900    -2.4561 H       
  37 H37            2.5829     2.0290    -2.7525 H       
  38 H38            3.6280     4.8960     2.8284 H       
  39 H39            2.1056     3.7618     1.2326 H       
  40 H40            1.6262     1.0399     0.5470 H       
  41 H41            2.1563     2.1350    -0.7513 H       
  42 H42            3.3937    -0.9805     0.9937 H       
  43 H43            4.3879    -1.4040    -0.4253 H       
  44 H44            5.6482    -0.3231     1.5235 H       
  45 H45            5.8624     0.4528    -0.0602 H       
  46 H46            5.7715     4.8356     3.9516 H       
  47 H47            8.5636     0.3618     3.6701 H       
  48 H48           12.6608     3.4974     7.3579 H       
  49 H49           11.0868    -0.4001     4.8427 H       
  50 H50           13.2120    -0.4160     6.0840 H       
  51 H51           11.1910     5.1480     7.1672 H       
  52 H52           11.1154     5.9852     4.8343 H       
  53 H53            9.3415     6.0944     4.9310 H       
  54 H54           11.3168     7.6001     6.7052 H       
  55 H55           10.3932     8.2997     5.3539 H       
  56 H56            8.2735     7.7179     6.5014 H       
  57 H57           10.1230     6.7714     8.7376 H       
  58 H58            8.3491     6.8806     8.8342 H       
  59 H59            8.1477     5.2657     6.9634 H       
  60 H60            9.0712     4.5661     8.3147 H       
  61 H61            9.3253     9.9232     6.9243 H       
  62 H62            8.4748     9.3328     8.3722 H       
  63 H63           10.2488     9.2236     8.2756 H       
  64 H64            1.6934     1.1364    -4.7817 H       
  65 Cl65          18.2120    14.9232    13.8342 Cl      
  66 H66           18.2120    16.2932    13.8342 H       
  67 O67           23.2120    22.2601    18.8404 O.3     
  68 H68           23.2251    21.2932    18.8351 H       
  69 H69           24.0900    22.6654    18.8342 H       
  70 O70           29.0900    28.6323    23.8466 O.3     
  71 H71           29.1031    27.6654    23.8413 H       
  72 H72           29.9679    29.0376    23.8404 H       
@<TRIPOS>BOND
   1    1    2 1
   2    1    9 am
   3    1   35 2
   4    2   34 1
   5    2   36 1
   6    2   37 1
   7    3    4 ar
   8    3   12 ar
   9    4    5 ar
  10    4   13 1
  11    5    6 ar
  12    5   38 1
  13    6    7 ar
  14    6   39 1
  15    7    8 1
  16    7   12 ar
  17    8    9 1
  18    8   40 1
  19    8   41 1
  20    9   10 1
  21   10   11 1
  22   10   42 1
  23   10   43 1
  24   11   12 1
  25   11   44 1
  26   11   45 1
  27   13   14 1
  28   13   46 1
  29   14   15 ar
  30   14   19 ar
  31   15   16 ar
  32   16   17 ar
  33   16   20 1
  34   17   18 ar
  35   17   21 1
  36   18   19 ar
  37   18   47 1
  38   20   22 1
  39   20   27 1
  40   21   22 ar
  41   21   24 ar
  42   22   23 ar
  43   23   26 ar
  44   23   48 1
  45   24   25 ar
  46   24   49 1
  47   25   26 ar
  48   25   50 1
  49   27   28 1
  50   27   32 1
  51   27   51 1
  52   28   29 1
  53   28   52 1
  54   28   53 1
  55   29   30 1
  56   29   54 1
  57   29   55 1
  58   30   31 1
  59   30   33 1
  60   30   56 1
  61   31   32 1
  62   31   57 1
  63   31   58 1
  64   32   59 1
  65   32   60 1
  66   33   61 1
  67   33   62 1
  68   33   63 1
  69   34   64 1
  70   65   66 1
  71   67   68 1
  72   67   69 1
  73   70   71 1
  74   70   72 1

#	End of record

