#	Name: ASD00840105
#	Creating user name:	WinNT
#	Creation time:	15. 06. 2019 18:37

#	Modifying user name:	WinNT
#	Modification time:	15. 06. 2019 18:37

#	Program:	/corina/corina34_cracker 3.40 0067  02.08.2006

@<TRIPOS>MOLECULE
ASD00840105
  87   92    0    0    0
SMALL
NO_CHARGES


@<TRIPOS>ATOM
   1 N1            -0.0821     1.3693     0.0070 N.3     
   2 C2            -0.1702    -0.0898     0.1472 C.3     
   3 C3             0.5883    -0.5297     1.4015 C.3     
   4 C4             2.0524    -0.0969     1.2848 C.3     
   5 C5             2.1138     1.4208     1.0912 C.3     
   6 C6             1.3112     1.8042    -0.1541 C.3     
   7 N7            -2.2597     5.3667    -2.7898 N.am    
   8 C8            -1.7459     4.1258    -2.8181 C.2     
   9 C9            -2.6355     3.2545    -1.9571 C.3     
  10 C10           -3.7037     4.2013    -1.4590 C.ar    
  11 C11           -4.7939     4.0280    -0.6438 C.ar    
  12 C12           -5.6237     5.1158    -0.3511 C.ar    
  13 C13           -5.3304     6.3723    -0.8956 C.ar    
  14 C14           -4.2328     6.5332    -1.7132 C.ar    
  15 C15           -3.4059     5.4475    -2.0039 C.ar    
  16 O16           -0.7554     3.7701    -3.4208 O.2     
  17 S17           -1.6001     6.6559    -3.5931 S.o2    
  18 O18           -2.0442     7.8221    -2.9133 O.2     
  19 O19           -0.2273     6.3464    -3.7899 O.2     
  20 C20           -2.3340     6.7036    -5.1943 C.ar    
  21 C21           -3.4923     7.4296    -5.4012 C.ar    
  22 C22           -4.0696     7.4686    -6.6557 C.ar    
  23 C23           -3.4862     6.7784    -7.7082 C.ar    
  24 C24           -2.3239     6.0507    -7.4980 C.ar    
  25 C25           -1.7474     6.0195    -6.2429 C.ar    
  26 O26           -4.0524     6.8148    -8.9431 O.3     
  27 C27           -3.3970     6.0807    -9.9792 C.3     
  28 F28           -6.1254     7.4290    -0.6190 F       
  29 C29           -4.0053     1.1568    -2.1709 C.ar    
  30 C30           -3.2494     2.1509    -2.7794 C.ar    
  31 C31           -3.0680     2.1143    -4.1508 C.ar    
  32 C32           -3.6522     1.0795    -4.8686 C.ar    
  33 C33           -4.3908     0.1253    -4.1980 C.ar    
  34 N34           -4.5461     0.1868    -2.8890 N.ar    
  35 O35           -4.1859     1.1782    -0.8264 O.3     
  36 C36           -4.9731     0.1283    -0.2608 C.3     
  37 C37           -5.0646     0.3191     1.2545 C.3     
  38 C38           -6.7642     4.9456     0.4981 C.1     
  39 N39           -7.6688     4.8106     1.1717 N.1     
  40 C40           -1.8556     2.6827    -0.8013 C.2     
  41 O41           -2.1283     3.0087     0.3346 O.2     
  42 N42           -0.8552     1.8090    -1.0299 N.am    
  43 N43            2.7723    -0.4648     2.5113 N.3     
  44 C44            4.2070    -0.1714     2.3879 C.3     
  45 C45            4.9065    -0.4938     3.7105 C.3     
  46 N46            4.6879    -1.9079     4.0453 N.3     
  47 C47            3.2533    -2.2013     4.1687 C.3     
  48 C48            2.5538    -1.8790     2.8461 C.3     
  49 C49            5.4079    -2.2759     5.2718 C.3     
  50 H50           -1.2162    -0.3839     0.2334 H       
  51 H51            0.2698    -0.5660    -0.7290 H       
  52 H52            0.1402    -0.0647     2.2796 H       
  53 H53            0.5359    -1.6143     1.4967 H       
  54 H54            2.5116    -0.5921     0.4293 H       
  55 H55            1.6898     1.9165     1.9644 H       
  56 H56            3.1515     1.7298     0.9647 H       
  57 H57            1.7442     1.3191    -1.0289 H       
  58 H58            1.3411     2.8857    -0.2867 H       
  59 H59           -5.0110     3.0546    -0.2296 H       
  60 H60           -4.0114     7.5043    -2.1307 H       
  61 H61           -3.9464     7.9664    -4.5814 H       
  62 H62           -4.9746     8.0356    -6.8167 H       
  63 H63           -1.8678     5.5125    -8.3157 H       
  64 H64           -0.8400     5.4570    -6.0798 H       
  65 H65           -3.9511     6.1939   -10.9110 H       
  66 H66           -2.3844     6.4621   -10.1100 H       
  67 H67           -3.3558     5.0260    -9.7069 H       
  68 H68           -2.4856     2.8737    -4.6513 H       
  69 H69           -3.5304     1.0218    -5.9401 H       
  70 H70           -4.8476    -0.6816    -4.7518 H       
  71 H71           -5.9742     0.1525    -0.6911 H       
  72 H72           -4.5073    -0.8328    -0.4785 H       
  73 H73           -4.0635     0.2948     1.6849 H       
  74 H74           -5.5305     1.2802     1.4722 H       
  75 H75           -5.6651    -0.4818     1.6860 H       
  76 H76           -0.6841     1.4924    -1.9306 H       
  77 H77            4.6356    -0.7805     1.5920 H       
  78 H78            4.3434     0.8840     2.1522 H       
  79 H79            5.9754    -0.3043     3.6122 H       
  80 H80            4.4967     0.1347     4.5012 H       
  81 H81            3.1169    -3.2567     4.4044 H       
  82 H82            2.8246    -1.5923     4.9646 H       
  83 H83            1.4849    -2.0684     2.9444 H       
  84 H84            2.9636    -2.5074     2.0554 H       
  85 H85            5.0530    -1.6619     6.0995 H       
  86 H86            5.2289    -3.3273     5.4966 H       
  87 H87            6.4760    -2.1115     5.1293 H       
@<TRIPOS>BOND
   1    1    2 1
   2    1    6 1
   3    1   42 1
   4    2    3 1
   5    2   50 1
   6    2   51 1
   7    3    4 1
   8    3   52 1
   9    3   53 1
  10    4    5 1
  11    4   43 1
  12    4   54 1
  13    5    6 1
  14    5   55 1
  15    5   56 1
  16    6   57 1
  17    6   58 1
  18    7    8 am
  19    7   15 1
  20    7   17 am
  21    8    9 1
  22    8   16 2
  23    9   10 1
  24    9   30 1
  25    9   40 1
  26   10   11 ar
  27   10   15 ar
  28   11   12 ar
  29   11   59 1
  30   12   13 ar
  31   12   38 1
  32   13   14 ar
  33   13   28 1
  34   14   15 ar
  35   14   60 1
  36   17   18 2
  37   17   19 2
  38   17   20 1
  39   20   21 ar
  40   20   25 ar
  41   21   22 ar
  42   21   61 1
  43   22   23 ar
  44   22   62 1
  45   23   24 ar
  46   23   26 1
  47   24   25 ar
  48   24   63 1
  49   25   64 1
  50   26   27 1
  51   27   65 1
  52   27   66 1
  53   27   67 1
  54   29   30 ar
  55   29   34 ar
  56   29   35 1
  57   30   31 ar
  58   31   32 ar
  59   31   68 1
  60   32   33 ar
  61   32   69 1
  62   33   34 ar
  63   33   70 1
  64   35   36 1
  65   36   37 1
  66   36   71 1
  67   36   72 1
  68   37   73 1
  69   37   74 1
  70   37   75 1
  71   38   39 3
  72   40   41 2
  73   40   42 am
  74   42   76 1
  75   43   44 1
  76   43   48 1
  77   44   45 1
  78   44   77 1
  79   44   78 1
  80   45   46 1
  81   45   79 1
  82   45   80 1
  83   46   47 1
  84   46   49 1
  85   47   48 1
  86   47   81 1
  87   47   82 1
  88   48   83 1
  89   48   84 1
  90   49   85 1
  91   49   86 1
  92   49   87 1

#	End of record

