#	Name: ASD07000010
#	Creating user name:	WinNT
#	Creation time:	15. 06. 2019 21:08

#	Modifying user name:	WinNT
#	Modification time:	15. 06. 2019 21:08

#	Program:	/corina/corina34_cracker 3.40 0067  02.08.2006

@<TRIPOS>MOLECULE
ASD07000010
  39   41    0    0    0
SMALL
NO_CHARGES


@<TRIPOS>ATOM
   1 Cl1            1.2341    -2.4151    -0.0221 Cl      
   2 C2            -0.0167     1.3777     0.0096 C.ar    
   3 O3            -5.0213     4.1663     4.2808 O.3     
   4 C4            -6.1793     4.8139     4.4839 C.2     
   5 C5             0.0021    -0.0041     0.0020 C.ar    
   6 O6            -6.5519     5.0196     5.6251 O.2     
   7 C7            -6.9753     5.2625     3.4100 C.2     
   8 C8             1.2098    -0.6793    -0.0131 C.ar    
   9 C9            -6.5732     5.0395     2.1317 C.2     
  10 C10            2.3977     0.0294    -0.0206 C.ar    
  11 C11           -7.4048     5.5087     0.9658 C.3     
  12 C12           -7.7070     7.3088    -0.6252 C.3     
  13 N13           -6.9181     6.8187     0.5130 N.3     
  14 C14           -4.8383     4.0729     0.6251 C.ar    
  15 C15            2.3777     1.4116    -0.0130 C.ar    
  16 C16           -3.6566     3.4121     0.4537 C.ar    
  17 C17            1.1710     2.0855     0.0021 C.ar    
  18 C18           -2.9150     2.9943     1.5573 C.ar    
  19 C19           -1.3319     2.1132     0.0198 C.3     
  20 O20           -1.7413     2.3384     1.3703 O.3     
  21 C21           -3.3653     3.2436     2.8433 C.ar    
  22 C22           -4.5641     3.9135     3.0357 C.ar    
  23 C23           -5.3086     4.3329     1.9175 C.ar    
  24 H24           -0.9257    -0.5569     0.0082 H       
  25 H25           -7.9028     5.7810     3.6032 H       
  26 H26            3.3407    -0.4970    -0.0321 H       
  27 H27           -7.3253     4.7899     0.1502 H       
  28 H28           -8.4467     5.5949     1.2739 H       
  29 H29           -7.6296     6.6024    -1.4518 H       
  30 H30           -8.7510     7.4074    -0.3281 H       
  31 H31           -7.3256     8.2800    -0.9403 H       
  32 H32           -6.9210     7.4867     1.2693 H       
  33 H33           -5.4087     4.3943    -0.2338 H       
  34 H34            3.3051     1.9651    -0.0185 H       
  35 H35           -3.2939     3.2115    -0.5435 H       
  36 H36            1.1559     3.1654     0.0080 H       
  37 H37           -1.2171     3.0701    -0.4894 H       
  38 H38           -2.0859     1.5166    -0.4937 H       
  39 H39           -2.7851     2.9162     3.6934 H       
@<TRIPOS>BOND
   1    1    8 1
   2    2    5 ar
   3    2   17 ar
   4    2   19 1
   5    3    4 1
   6    3   22 1
   7    4    6 2
   8    4    7 1
   9    5    8 ar
  10    5   24 1
  11    7    9 2
  12    7   25 1
  13    8   10 ar
  14    9   11 1
  15    9   23 1
  16   10   15 ar
  17   10   26 1
  18   11   13 1
  19   11   27 1
  20   11   28 1
  21   12   13 1
  22   12   29 1
  23   12   30 1
  24   12   31 1
  25   13   32 1
  26   14   16 ar
  27   14   23 ar
  28   14   33 1
  29   15   17 ar
  30   15   34 1
  31   16   18 ar
  32   16   35 1
  33   17   36 1
  34   18   20 1
  35   18   21 ar
  36   19   20 1
  37   19   37 1
  38   19   38 1
  39   21   22 ar
  40   21   39 1
  41   22   23 ar

#	End of record

