#	Name: ASD03090141
#	Creating user name:	WinNT
#	Creation time:	15. 06. 2019 20:28

#	Modifying user name:	WinNT
#	Modification time:	15. 06. 2019 20:28

#	Program:	/corina/corina34_cracker 3.40 0067  02.08.2006

@<TRIPOS>MOLECULE
ASD03090141
  46   49    0    0    0
SMALL
NO_CHARGES


@<TRIPOS>ATOM
   1 C1            -0.2708     0.9580    -0.8413 C.ar    
   2 C2            -0.1369    -0.1784    -0.0548 C.ar    
   3 C3             1.0997    -0.7649     0.1140 C.ar    
   4 C4             2.2220    -0.2161    -0.5072 C.ar    
   5 C5             2.0887     0.9267    -1.2969 C.ar    
   6 C6             0.8457     1.5120    -1.4613 C.ar    
   7 C7             3.5492    -0.8434    -0.3288 C.2     
   8 N8             7.0636    -0.8699    -0.4237 N.pl3   
   9 C9             7.4920     0.3402    -0.9759 C.ar    
  10 C10            6.7234     0.9746    -1.9434 C.ar    
  11 C11            7.1496     2.1708    -2.4867 C.ar    
  12 C12            8.3401     2.7365    -2.0689 C.ar    
  13 C13            9.1081     2.1072    -1.1060 C.ar    
  14 C14            8.6849     0.9143    -0.5542 C.ar    
  15 N15            4.7147    -0.2725    -0.5614 N.2     
  16 C16            5.6986    -1.1327    -0.2921 C.2     
  17 N17            5.1768    -2.2660     0.1166 N.2     
  18 N18            3.7822    -2.1020     0.1072 N.pl3   
  19 C19            2.7784    -3.0998     0.4854 C.3     
  20 C20            2.5420    -3.0382     1.9958 C.3     
  21 O21            1.5629    -4.0115     2.3647 O.3     
  22 O22            0.7327     2.6308    -2.2285 O.3     
  23 C23           -0.5833     2.9749    -2.6751 C.3     
  24 C24           -1.5404     2.8641    -1.4806 C.3     
  25 O25           -1.5021     1.5152    -1.0005 O.3     
  26 C26           10.4054     2.7271    -0.6544 C.3     
  27 F27           10.6160     3.9244    -1.3468 F       
  28 F28           10.3449     2.9870     0.7189 F       
  29 F29           11.4595     1.8454    -0.9162 F       
  30 H30           -1.0045    -0.6045     0.4269 H       
  31 H31            1.1995    -1.6484     0.7270 H       
  32 H32            2.9553     1.3544    -1.7791 H       
  33 H33            7.7145    -1.5272    -0.1318 H       
  34 H34            5.7938     0.5329    -2.2707 H       
  35 H35            6.5525     2.6646    -3.2391 H       
  36 H36            8.6712     3.6718    -2.4957 H       
  37 H37            9.2851     0.4235     0.1977 H       
  38 H38            1.8448    -2.8921    -0.0372 H       
  39 H39            3.1337    -4.0937     0.2135 H       
  40 H40            3.4757    -3.2459     2.5185 H       
  41 H41            2.1868    -2.0443     2.2678 H       
  42 H42            1.3627    -4.0290     3.3106 H       
  43 H43           -0.5871     3.9963    -3.0555 H       
  44 H44           -0.8959     2.2880    -3.4615 H       
  45 H45           -1.2238     3.5460    -0.6914 H       
  46 H46           -2.5535     3.1123    -1.7970 H       
@<TRIPOS>BOND
   1    1    2 ar
   2    1    6 ar
   3    1   25 1
   4    2    3 ar
   5    2   30 1
   6    3    4 ar
   7    3   31 1
   8    4    5 ar
   9    4    7 1
  10    5    6 ar
  11    5   32 1
  12    6   22 1
  13    7   15 2
  14    7   18 1
  15    8    9 1
  16    8   16 1
  17    8   33 1
  18    9   10 ar
  19    9   14 ar
  20   10   11 ar
  21   10   34 1
  22   11   12 ar
  23   11   35 1
  24   12   13 ar
  25   12   36 1
  26   13   14 ar
  27   13   26 1
  28   14   37 1
  29   15   16 1
  30   16   17 2
  31   17   18 1
  32   18   19 1
  33   19   20 1
  34   19   38 1
  35   19   39 1
  36   20   21 1
  37   20   40 1
  38   20   41 1
  39   21   42 1
  40   22   23 1
  41   23   24 1
  42   23   43 1
  43   23   44 1
  44   24   25 1
  45   24   45 1
  46   24   46 1
  47   26   27 1
  48   26   28 1
  49   26   29 1

#	End of record

