#	Name: ASD01150936
#	Creating user name:	WinNT
#	Creation time:	15. 06. 2019 19:05

#	Modifying user name:	WinNT
#	Modification time:	15. 06. 2019 19:05

#	Program:	/corina/corina34_cracker 3.40 0067  02.08.2006

@<TRIPOS>MOLECULE
ASD01150936
  22   22    0    0    0
SMALL
NO_CHARGES


@<TRIPOS>ATOM
   1 N1            -0.1112     1.3053    -0.2611 N.pl3   
   2 C2            -0.0670    -0.0350     0.0555 C.2     
   3 N3            -0.8057    -0.8917    -0.6111 N.2     
   4 S4             0.9809    -0.5993     1.3548 S.3     
   5 C5             1.8431     0.9412     1.7546 C.3     
   6 C6            -0.6988    -2.2326    -0.3548 C.ar    
   7 C7            -1.6444    -2.8703     0.4508 C.ar    
   8 C8            -1.5308    -4.2215     0.7045 C.ar    
   9 C9            -0.4831    -4.9447     0.1626 C.ar    
  10 C10            0.4574    -4.3192    -0.6366 C.ar    
  11 C11            0.3530    -2.9697    -0.9028 C.ar    
  12 C12            0.0577     2.2364     0.7087 C.1     
  13 N13            0.1993     3.0171     1.5217 N.1     
  14 H14           -0.2592     1.5822    -1.1789 H       
  15 H15            2.7947     0.7111     2.2338 H       
  16 H16            2.0241     1.5044     0.8392 H       
  17 H17            1.2297     1.5356     2.4317 H       
  18 H18           -2.4625    -2.3069     0.8747 H       
  19 H19           -2.2613    -4.7159     1.3278 H       
  20 H20           -0.3988    -6.0023     0.3647 H       
  21 H21            1.2729    -4.8896    -1.0561 H       
  22 H22            1.0876    -2.4827    -1.5270 H       
@<TRIPOS>BOND
   1    1    2 1
   2    1   12 1
   3    1   14 1
   4    2    3 2
   5    2    4 1
   6    3    6 1
   7    4    5 1
   8    5   15 1
   9    5   16 1
  10    5   17 1
  11    6    7 ar
  12    6   11 ar
  13    7    8 ar
  14    7   18 1
  15    8    9 ar
  16    8   19 1
  17    9   10 ar
  18    9   20 1
  19   10   11 ar
  20   10   21 1
  21   11   22 1
  22   12   13 3

#	End of record

