#	Name: ASD01812888
#	Creating user name:	WinNT
#	Creation time:	15. 06. 2019 19:29

#	Modifying user name:	WinNT
#	Modification time:	15. 06. 2019 19:29

#	Program:	/corina/corina34_cracker 3.40 0067  02.08.2006

@<TRIPOS>MOLECULE
ASD01812888
  63   67    0    0    0
SMALL
NO_CHARGES


@<TRIPOS>ATOM
   1 N1             0.0027     1.3184    -0.2224 N.ar    
   2 C2             0.0319     0.0058    -0.3460 C.ar    
   3 C3             1.2340    -0.6843    -0.3682 C.ar    
   4 C4             2.4113     0.0205    -0.2593 C.ar    
   5 C5             2.3614     1.4132    -0.1292 C.ar    
   6 C6             1.1073     2.0395    -0.1145 C.ar    
   7 C7             3.8682    -0.3581    -0.2428 C.3     
   8 N8             4.6151     0.8975    -0.0972 N.am    
   9 C9             3.7395     1.9163    -0.0322 C.2     
  10 C10            6.0736     1.0204    -0.0337 C.3     
  11 C11            6.6239     1.1966    -1.4255 C.ar    
  12 O12            1.0259     3.3855     0.0100 O.3     
  13 O13            4.0442     3.0870     0.0899 O.2     
  14 C14            6.7706     2.4669    -1.9529 C.ar    
  15 C15            7.2742     2.6339    -3.2271 C.ar    
  16 C16            7.6353     1.5203    -3.9821 C.ar    
  17 C17            7.4860     0.2433    -3.4460 C.ar    
  18 C18            6.9859     0.0878    -2.1689 C.ar    
  19 C19           -0.2021     3.9617    -0.0802 C.ar    
  20 C20           -1.0087     4.0614     1.0465 C.ar    
  21 C21           -2.2577     4.6483     0.9509 C.ar    
  22 C22           -2.7025     5.1344    -0.2646 C.ar    
  23 C23           -1.9011     5.0354    -1.3870 C.ar    
  24 C24           -0.6499     4.4562    -1.2961 C.ar    
  25 F25           -0.5740     3.5855     2.2339 F       
  26 C26           -4.0638     5.7728    -0.3664 C.3     
  27 C27           -4.0483     6.8338    -1.4687 C.3     
  28 C28           -5.1049     4.7033    -0.7026 C.3     
  29 O29           -4.3967     6.3864     0.8805 O.3     
  30 C30            8.1771     1.6939    -5.3535 C.2     
  31 C31            7.6306     2.4540    -6.3460 C.2     
  32 C32            9.3519     1.1087    -5.8646 C.2     
  33 N33            9.4938     1.4987    -7.1036 N.2     
  34 N34            8.4287     2.3477    -7.4275 N.pl3   
  35 C35            8.2153     3.0033    -8.7201 C.3     
  36 C36           10.2830     0.1924    -5.1132 C.3     
  37 H37           -0.8959    -0.5406    -0.4310 H       
  38 H38            1.2466    -1.7595    -0.4692 H       
  39 H39            4.0747    -1.0171     0.6004 H       
  40 H40            4.1385    -0.8488    -1.1778 H       
  41 H41            6.3392     1.8853     0.5742 H       
  42 H42            6.4951     0.1196     0.4123 H       
  43 H43            6.4903     3.3296    -1.3667 H       
  44 H44            7.3876     3.6261    -3.6382 H       
  45 H45            7.7645    -0.6233    -4.0271 H       
  46 H46            6.8733    -0.9016    -1.7509 H       
  47 H47           -2.8858     4.7265     1.8260 H       
  48 H48           -2.2518     5.4154    -2.3351 H       
  49 H49           -0.0231     4.3839    -2.1726 H       
  50 H50           -3.7944     6.3658    -2.4199 H       
  51 H51           -5.0329     7.2956    -1.5424 H       
  52 H52           -3.3066     7.5957    -1.2292 H       
  53 H53           -5.1159     3.9475     0.0827 H       
  54 H54           -6.0895     5.1651    -0.7763 H       
  55 H55           -4.8510     4.2353    -1.6537 H       
  56 H56           -4.4250     5.7714     1.6262 H       
  57 H57            6.7230     3.0353    -6.2778 H       
  58 H58            8.7061     3.9766    -8.7192 H       
  59 H59            8.6347     2.3857    -9.5144 H       
  60 H60            7.1466     3.1355    -8.8885 H       
  61 H61            9.9645    -0.8410    -5.2500 H       
  62 H62           11.2972     0.3134    -5.4938 H       
  63 H63           10.2608     0.4421    -4.0525 H       
@<TRIPOS>BOND
   1    1    2 ar
   2    1    6 ar
   3    2    3 ar
   4    2   37 1
   5    3    4 ar
   6    3   38 1
   7    4    7 1
   8    4    5 ar
   9    5    6 ar
  10    5    9 1
  11    6   12 1
  12    7    8 1
  13    7   39 1
  14    7   40 1
  15    8    9 am
  16    8   10 1
  17    9   13 2
  18   10   11 1
  19   10   41 1
  20   10   42 1
  21   11   14 ar
  22   11   18 ar
  23   12   19 1
  24   14   15 ar
  25   14   43 1
  26   15   16 ar
  27   15   44 1
  28   16   17 ar
  29   16   30 1
  30   17   18 ar
  31   17   45 1
  32   18   46 1
  33   19   20 ar
  34   19   24 ar
  35   20   21 ar
  36   20   25 1
  37   21   22 ar
  38   21   47 1
  39   22   23 ar
  40   22   26 1
  41   23   24 ar
  42   23   48 1
  43   24   49 1
  44   26   27 1
  45   26   28 1
  46   26   29 1
  47   27   50 1
  48   27   51 1
  49   27   52 1
  50   28   53 1
  51   28   54 1
  52   28   55 1
  53   29   56 1
  54   30   32 1
  55   30   31 2
  56   31   34 1
  57   31   57 1
  58   32   33 2
  59   32   36 1
  60   33   34 1
  61   34   35 1
  62   35   58 1
  63   35   59 1
  64   35   60 1
  65   36   61 1
  66   36   62 1
  67   36   63 1

#	End of record

