#	Name: ASD01870336
#	Creating user name:	WinNT
#	Creation time:	15. 06. 2019 19:39

#	Modifying user name:	WinNT
#	Modification time:	15. 06. 2019 19:39

#	Program:	/corina/corina34_cracker 3.40 0067  02.08.2006

@<TRIPOS>MOLECULE
ASD01870336
  54   58    0    0    0
SMALL
NO_CHARGES


@<TRIPOS>ATOM
   1 N1            -0.0179     1.4666     0.0101 N.am    
   2 C2             0.0021    -0.0041     0.0020 C.3     
   3 C3            -0.8912    -0.5093     1.1400 C.3     
   4 N4            -2.2247     0.0945     1.0165 N.3     
   5 C5            -2.1640     1.5549     1.1632 C.3     
   6 C6            -1.3228     2.1447     0.0324 C.3     
   7 C7            -3.1112    -0.4624     1.9332 C.ar    
   8 C8            -4.4384    -0.0378     1.9940 C.ar    
   9 C9            -5.2849    -0.6150     2.9168 C.ar    
  10 N10           -4.8532    -1.5565     3.7351 N.ar    
  11 C11           -3.6052    -1.9854     3.7087 C.ar    
  12 C12           -2.6973    -1.4639     2.8113 C.ar    
  13 C13            1.1293     2.1740     0.0030 C.2     
  14 C14            1.0857     3.6803     0.0115 C.3     
  15 O15            2.1967     1.5983    -0.0103 O.2     
  16 C16            2.4763     4.3407     0.0017 C.3     
  17 N17            1.9076     5.2908    -0.9739 N.am    
  18 C18            0.8907     4.3026    -1.3830 C.3     
  19 S19            2.2664     6.8425    -1.4275 S.o2    
  20 C20            3.4250     6.7442    -2.7514 C.ar    
  21 C21            3.0848     7.1831    -3.9953 C.ar    
  22 C22            3.9886     7.1123    -5.0538 C.ar    
  23 C23            5.2393     6.6030    -4.8775 C.ar    
  24 C24            5.6257     6.1415    -3.6098 C.ar    
  25 C25            4.7065     6.2189    -2.5314 C.ar    
  26 C26            6.9030     5.6064    -3.3678 C.ar    
  27 N27            7.2194     5.1874    -2.1636 N.ar    
  28 C28            6.3770     5.2439    -1.1397 C.ar    
  29 C29            5.1183     5.7501    -1.2706 C.ar    
  30 O30            1.0740     7.3858    -1.9773 O.2     
  31 O31            2.9563     7.4310    -0.3334 O.2     
  32 Cl32           8.0596     5.4991    -4.6579 Cl      
  33 Cl33           6.8952     4.6628     0.4119 Cl      
  34 H34           -0.3778    -0.3702    -0.9518 H       
  35 H35            1.0222    -0.3573     0.1529 H       
  36 H36           -0.9764    -1.5943     1.0812 H       
  37 H37           -0.4527    -0.2298     2.0980 H       
  38 H38           -3.1723     1.9669     1.1212 H       
  39 H39           -1.7078     1.8056     2.1209 H       
  40 H40           -1.1798     3.2121     0.2008 H       
  41 H41           -1.8275     1.9859    -0.9206 H       
  42 H42           -4.7979     0.7326     1.3279 H       
  43 H43           -6.3142    -0.2925     2.9710 H       
  44 H44           -3.2923    -2.7578     4.3957 H       
  45 H45           -1.6776    -1.8195     2.7948 H       
  46 H46            0.4145     4.0817     0.7708 H       
  47 H47            2.7518     4.7987     0.9517 H       
  48 H48            3.2612     3.7060    -0.4094 H       
  49 H49            1.2098     3.6567    -2.2009 H       
  50 H50           -0.0998     4.7302    -1.5387 H       
  51 H51            2.0994     7.5918    -4.1640 H       
  52 H52            3.6922     7.4668    -6.0299 H       
  53 H53            5.9287     6.5542    -5.7074 H       
  54 H54            4.4488     5.7868    -0.4239 H       
@<TRIPOS>BOND
   1    1    2 1
   2    1   13 am
   3    1    6 1
   4    2    3 1
   5    2   34 1
   6    2   35 1
   7    3    4 1
   8    3   36 1
   9    3   37 1
  10    4    5 1
  11    4    7 1
  12    5    6 1
  13    5   38 1
  14    5   39 1
  15    6   40 1
  16    6   41 1
  17    7    8 ar
  18    7   12 ar
  19    8    9 ar
  20    8   42 1
  21    9   10 ar
  22    9   43 1
  23   10   11 ar
  24   11   12 ar
  25   11   44 1
  26   12   45 1
  27   13   14 1
  28   13   15 2
  29   14   16 1
  30   14   18 1
  31   14   46 1
  32   16   17 1
  33   16   47 1
  34   16   48 1
  35   17   18 1
  36   17   19 am
  37   18   49 1
  38   18   50 1
  39   19   20 1
  40   19   30 2
  41   19   31 2
  42   20   21 ar
  43   20   25 ar
  44   21   22 ar
  45   21   51 1
  46   22   23 ar
  47   22   52 1
  48   23   24 ar
  49   23   53 1
  50   24   25 ar
  51   24   26 ar
  52   25   29 ar
  53   26   27 ar
  54   26   32 1
  55   27   28 ar
  56   28   29 ar
  57   28   33 1
  58   29   54 1

#	End of record

