#	Name: ASD01884736
#	Creating user name:	WinNT
#	Creation time:	15. 06. 2019 19:48

#	Modifying user name:	WinNT
#	Modification time:	15. 06. 2019 19:48

#	Program:	/corina/corina34_cracker 3.40 0067  02.08.2006

@<TRIPOS>MOLECULE
ASD01884736
  57   60    0    0    0
SMALL
NO_CHARGES


@<TRIPOS>ATOM
   1 C1            -0.0170     1.3882     0.0437 C.2     
   2 C2             0.0019    -0.0043     0.0367 C.2     
   3 C3            -1.2135    -0.6983     0.0098 C.2     
   4 C4            -2.3898    -0.0118    -0.0095 C.2     
   5 N5            -2.4100     1.3457    -0.0028 N.am    
   6 C6            -1.2677     2.0576     0.0292 C.2     
   7 O7            -1.3080     3.2764     0.0349 O.2     
   8 C8            -3.6959     2.0473    -0.0247 C.3     
   9 C9             1.2062     2.1323     0.0709 C.1     
  10 N10            2.1765     2.7226     0.0926 N.1     
  11 C11           -4.1722     2.2839     1.4098 C.3     
  12 C12           -5.5152     3.0167     1.3869 C.3     
  13 C13           -6.5765     2.1164     0.7513 C.3     
  14 C14           -5.9312     3.3637     2.8178 C.3     
  15 N15           -1.2200    -2.1015     0.0024 N.pl3   
  16 C16            0.0354    -2.8544    -0.1239 C.3     
  17 C17            0.1346    -3.8447     1.0417 C.3     
  18 C18           -1.1255    -4.7048     1.0834 C.3     
  19 C19           -2.3633    -3.8352     1.2840 C.3     
  20 C20           -2.4817    -2.8440     0.1268 C.3     
  21 C21           -1.2547    -5.5094    -0.2231 C.3     
  22 C22           -0.5557    -6.8380     0.1385 C.3     
  23 C23           -0.6936    -6.9625     1.6411 C.ar    
  24 C24           -1.0217    -5.7334     2.1842 C.ar    
  25 C25           -0.5432    -8.0633     2.4676 C.ar    
  26 C26           -0.7197    -7.9383     3.8316 C.ar    
  27 C27           -1.0484    -6.7102     4.3747 C.ar    
  28 C28           -1.1988    -5.6110     3.5525 C.ar    
  29 H29            0.9394    -0.5402     0.0515 H       
  30 H30           -3.3221    -0.5565    -0.0309 H       
  31 H31           -3.5785     3.0052    -0.5313 H       
  32 H32           -4.4306     1.4427    -0.5565 H       
  33 H33           -4.2896     1.3260     1.9164 H       
  34 H34           -3.4375     2.8885     1.9416 H       
  35 H35           -5.4194     3.9327     0.8041 H       
  36 H36           -7.5333     2.6384     0.7350 H       
  37 H37           -6.2801     1.8692    -0.2680 H       
  38 H38           -6.6724     1.2004     1.3342 H       
  39 H39           -5.1751     4.0051     3.2706 H       
  40 H40           -6.8880     3.8857     2.8015 H       
  41 H41           -6.0271     2.4477     3.4006 H       
  42 H42            0.0416    -3.3992    -1.0679 H       
  43 H43            0.8796    -2.1657    -0.0912 H       
  44 H44            1.0067    -4.4837     0.9027 H       
  45 H45            0.2313    -3.2956     1.9782 H       
  46 H46           -3.2506    -4.4675     1.3152 H       
  47 H47           -2.2742    -3.2867     2.2217 H       
  48 H48           -3.2983    -2.1491     0.3229 H       
  49 H49           -2.6740    -3.3852    -0.7997 H       
  50 H50           -2.3023    -5.6778    -0.4728 H       
  51 H51           -0.7359    -5.0081    -1.0402 H       
  52 H52           -1.0508    -7.6730    -0.3572 H       
  53 H53            0.4967    -6.8004    -0.1428 H       
  54 H54           -0.2864    -9.0230     2.0441 H       
  55 H55           -0.6016    -8.7991     4.4731 H       
  56 H56           -1.1876    -6.6106     5.4410 H       
  57 H57           -1.4550    -4.6520     3.9780 H       
@<TRIPOS>BOND
   1    1    2 2
   2    1    9 1
   3    1    6 1
   4    2    3 1
   5    2   29 1
   6    3    4 2
   7    3   15 1
   8    4    5 1
   9    4   30 1
  10    5    8 1
  11    5    6 am
  12    6    7 2
  13    8   11 1
  14    8   31 1
  15    8   32 1
  16    9   10 3
  17   11   12 1
  18   11   33 1
  19   11   34 1
  20   12   13 1
  21   12   14 1
  22   12   35 1
  23   13   36 1
  24   13   37 1
  25   13   38 1
  26   14   39 1
  27   14   40 1
  28   14   41 1
  29   15   16 1
  30   15   20 1
  31   16   17 1
  32   16   42 1
  33   16   43 1
  34   17   18 1
  35   17   44 1
  36   17   45 1
  37   18   19 1
  38   18   21 1
  39   18   24 1
  40   19   20 1
  41   19   46 1
  42   19   47 1
  43   20   48 1
  44   20   49 1
  45   21   22 1
  46   21   50 1
  47   21   51 1
  48   22   23 1
  49   22   52 1
  50   22   53 1
  51   23   24 ar
  52   23   25 ar
  53   24   28 ar
  54   25   26 ar
  55   25   54 1
  56   26   27 ar
  57   26   55 1
  58   27   28 ar
  59   27   56 1
  60   28   57 1

#	End of record

