#	Name: ASD04590464
#	Creating user name:	WinNT
#	Creation time:	15. 06. 2019 20:50

#	Modifying user name:	WinNT
#	Modification time:	15. 06. 2019 20:50

#	Program:	/corina/corina34_cracker 3.40 0067  02.08.2006

@<TRIPOS>MOLECULE
ASD04590464
  58   63    0    0    0
SMALL
NO_CHARGES


@<TRIPOS>ATOM
   1 C1            -0.0167     1.3832     0.0096 C.ar    
   2 C2             0.0021    -0.0041     0.0020 C.ar    
   3 C3             2.4020     0.0223    -0.0207 C.ar    
   4 C4             2.3769     1.4283    -0.0129 C.ar    
   5 C5             1.1624     2.0987     0.0022 C.ar    
   6 N6             3.7040    -0.3552    -0.0356 N.2     
   7 C7             4.4708     0.7083    -0.0375 C.2     
   8 N8             3.6969     1.8375    -0.0238 N.pl3   
   9 C9             5.9482     0.6906    -0.0517 C.2     
  10 C10            6.7658    -0.4632    -0.0659 C.2     
  11 C11            8.0581    -0.0538    -0.0760 C.2     
  12 N12            8.0646     1.3050    -0.0685 N.pl3   
  13 N13            6.7360     1.7479    -0.0591 N.2     
  14 N14            6.3191    -1.7941    -0.0691 N.am    
  15 C15            7.2112    -2.8042    -0.0832 C.2     
  16 O16            8.4022    -2.5630    -0.0933 O.2     
  17 C17            1.1969    -0.6870    -0.0130 C.ar    
  18 C18           -1.2962    -0.7693     0.0108 C.3     
  19 N19           -1.7317    -1.0105    -1.3713 N.3     
  20 C20           -2.8603    -1.9518    -1.4113 C.3     
  21 C21           -0.6175    -1.4976    -2.1974 C.3     
  22 C22           -1.0994    -1.6784    -3.6393 C.3     
  23 O23           -2.2160    -2.5718    -3.6550 O.3     
  24 C24           -3.3197    -2.1280    -2.8611 C.3     
  25 C25            6.7394    -4.2101    -0.0866 C.2     
  26 N26            5.4931    -4.6297    -0.0774 N.2     
  27 C27            7.5336    -5.3748    -0.1063 C.2     
  28 C28            6.6432    -6.3945    -0.1021 C.2     
  29 O29            5.4313    -5.8424    -0.0836 O.3     
  30 C30            9.0254    -5.5365    -0.1254 C.3     
  31 C31            9.3567    -6.9843     0.2643 C.3     
  32 C32            8.5015    -7.9457    -0.5655 C.3     
  33 C33            7.0356    -7.8483    -0.1231 C.3     
  34 H34           -0.9614     1.9066     0.0169 H       
  35 H35            1.1403     3.1784     0.0079 H       
  36 H36            4.0155     2.7537    -0.0225 H       
  37 H37            8.9279    -0.6939    -0.0873 H       
  38 H38            8.8529     1.8703    -0.0724 H       
  39 H39            5.3685    -1.9866    -0.0611 H       
  40 H40            1.2037    -1.7669    -0.0185 H       
  41 H41           -1.1522    -1.7232     0.5181 H       
  42 H42           -2.0559    -0.1898     0.5353 H       
  43 H43           -2.5454    -2.9149    -1.0097 H       
  44 H44           -3.6831    -1.5591    -0.8140 H       
  45 H45            0.1968    -0.7734    -2.1739 H       
  46 H46           -0.2667    -2.4535    -1.8083 H       
  47 H47           -1.4000    -0.7130    -4.0463 H       
  48 H48           -0.2926    -2.0935    -4.2433 H       
  49 H49           -4.1187    -2.8683    -2.9023 H       
  50 H50           -3.6848    -1.1756    -3.2455 H       
  51 H51            9.4049    -5.3291    -1.1259 H       
  52 H52            9.4787    -4.8503     0.5899 H       
  53 H53           10.4119    -7.1795     0.0732 H       
  54 H54            9.1460    -7.1326     1.3235 H       
  55 H55            8.5802    -7.6826    -1.6203 H       
  56 H56            8.8573    -8.9656    -0.4195 H       
  57 H57            6.9239    -8.2734     0.8743 H       
  58 H58            6.4029    -8.3895    -0.8266 H       
@<TRIPOS>BOND
   1    1    2 ar
   2    1    5 ar
   3    1   34 1
   4    2   17 ar
   5    2   18 1
   6    3    4 ar
   7    3    6 1
   8    3   17 ar
   9    4    5 ar
  10    4    8 1
  11    5   35 1
  12    6    7 2
  13    7    8 1
  14    7    9 1
  15    8   36 1
  16    9   10 1
  17    9   13 2
  18   10   11 2
  19   10   14 1
  20   11   12 1
  21   11   37 1
  22   12   13 1
  23   12   38 1
  24   14   15 am
  25   14   39 1
  26   15   16 2
  27   15   25 1
  28   17   40 1
  29   18   19 1
  30   18   41 1
  31   18   42 1
  32   19   20 1
  33   19   21 1
  34   20   24 1
  35   20   43 1
  36   20   44 1
  37   21   22 1
  38   21   45 1
  39   21   46 1
  40   22   23 1
  41   22   47 1
  42   22   48 1
  43   23   24 1
  44   24   49 1
  45   24   50 1
  46   25   26 2
  47   25   27 1
  48   26   29 1
  49   27   28 2
  50   27   30 1
  51   28   29 1
  52   28   33 1
  53   30   31 1
  54   30   51 1
  55   30   52 1
  56   31   32 1
  57   31   53 1
  58   31   54 1
  59   32   33 1
  60   32   55 1
  61   32   56 1
  62   33   57 1
  63   33   58 1

#	End of record

