#	Name: ASD02560354
#	Creating user name:	WinNT
#	Creation time:	15. 06. 2019 20:25

#	Modifying user name:	WinNT
#	Modification time:	15. 06. 2019 20:25

#	Program:	/corina/corina34_cracker 3.40 0067  02.08.2006

@<TRIPOS>MOLECULE
ASD02560354
  42   44    0    0    0
SMALL
NO_CHARGES


@<TRIPOS>ATOM
   1 C1            -0.0083     1.4102     0.1356 C.2     
   2 C2             0.0074     0.0030     0.1000 C.2     
   3 C3             1.1798    -0.6643     0.0539 C.2     
   4 N4             2.3682     0.0169     0.0415 N.pl3   
   5 C5             2.3819     1.3918     0.0755 C.2     
   6 C6             1.1634     2.0993     0.1233 C.2     
   7 C7             3.6718    -0.3958    -0.0019 C.2     
   8 C8             4.4441     0.7201     0.0064 C.2     
   9 N9             3.6442     1.7912     0.0535 N.2     
  10 C10            5.9504     0.7478    -0.0306 C.3     
  11 N11            4.1241    -1.7205    -0.0460 N.3     
  12 C12            3.0047    -2.6635     0.0798 C.3     
  13 C13            6.4161     1.5090    -1.2734 C.3     
  14 C14            2.3246    -2.8321    -1.2803 C.3     
  15 C15            6.4786     1.4472     1.2235 C.3     
  16 C16            3.5305    -4.0182     0.5585 C.3     
  17 C17            2.3647    -5.0003     0.6896 C.3     
  18 C18            1.6845    -5.1689    -0.6705 C.3     
  19 C19            1.1587    -3.8142    -1.1492 C.3     
  20 F20           -1.1566    -0.6828     0.1126 F       
  21 H21           -0.9484     1.9408     0.1680 H       
  22 H22            1.1809    -1.7440     0.0269 H       
  23 H23            1.1609     3.1790     0.1500 H       
  24 H24            6.3318    -0.2727    -0.0655 H       
  25 H25            4.6508    -1.8949    -0.8888 H       
  26 H26            2.2842    -2.2779     0.8011 H       
  27 H27            7.5056     1.5291    -1.3002 H       
  28 H28            6.0398     1.0108    -2.1669 H       
  29 H29            6.0347     2.5295    -1.2386 H       
  30 H30            1.9500    -1.8669    -1.6213 H       
  31 H31            3.0451    -3.2176    -2.0016 H       
  32 H32            6.1469     0.9049     2.1089 H       
  33 H33            7.5681     1.4672     1.1967 H       
  34 H34            6.0972     2.4676     1.2583 H       
  35 H35            4.2511    -4.4038    -0.1628 H       
  36 H36            4.0151    -3.8981     1.5275 H       
  37 H37            2.7392    -5.9655     1.0306 H       
  38 H38            1.6441    -4.6148     1.4108 H       
  39 H39            2.4051    -5.5545    -1.3918 H       
  40 H40            0.8539    -5.8686    -0.5772 H       
  41 H41            0.4382    -3.4286    -0.4279 H       
  42 H42            0.6742    -3.9343    -2.1182 H       
@<TRIPOS>BOND
   1    1    2 1
   2    1    6 2
   3    1   21 1
   4    2    3 2
   5    2   20 1
   6    3    4 1
   7    3   22 1
   8    4    5 1
   9    4    7 1
  10    5    6 1
  11    5    9 2
  12    6   23 1
  13    7    8 2
  14    7   11 1
  15    8    9 1
  16    8   10 1
  17   10   13 1
  18   10   15 1
  19   10   24 1
  20   11   12 1
  21   11   25 1
  22   12   16 1
  23   12   14 1
  24   12   26 1
  25   13   27 1
  26   13   28 1
  27   13   29 1
  28   14   19 1
  29   14   30 1
  30   14   31 1
  31   15   32 1
  32   15   33 1
  33   15   34 1
  34   16   17 1
  35   16   35 1
  36   16   36 1
  37   17   18 1
  38   17   37 1
  39   17   38 1
  40   18   19 1
  41   18   39 1
  42   18   40 1
  43   19   41 1
  44   19   42 1

#	End of record

