#	Name: ASD09740292
#	Creating user name:	WinNT
#	Creation time:	15. 06. 2019 21:23

#	Modifying user name:	WinNT
#	Modification time:	15. 06. 2019 21:23

#	Program:	/corina/corina34_cracker 3.40 0067  02.08.2006

@<TRIPOS>MOLECULE
ASD09740292
  30   32    0    0    0
SMALL
NO_CHARGES


@<TRIPOS>ATOM
   1 C1            -0.0184     1.5028     0.0103 C.3     
   2 N2             0.0857    -3.2000     4.5207 N.2     
   3 O3             0.0667    -2.3137     3.6932 O.3     
   4 C4             0.0962    -4.3693     3.9343 C.2     
   5 N5             0.0818    -4.1526     2.6029 N.2     
   6 C6             0.0630    -2.8409     2.4590 C.2     
   7 C7             0.0413    -2.0953     1.1829 C.ar    
   8 C8             0.1205    -5.6916     4.6099 C.ar    
   9 C9             0.1341    -5.7851     6.0036 C.ar    
  10 C10            0.1566    -7.0342     6.5910 C.ar    
  11 N11            0.1657    -8.1283     5.8546 N.ar    
  12 C12            0.1534    -8.0837     4.5366 C.ar    
  13 C13            0.1244    -6.8758     3.8688 C.ar    
  14 C14            0.0228    -0.6989     1.1905 C.ar    
  15 C15            0.0021    -0.0041     0.0020 C.ar    
  16 C16           -0.0005    -0.6961    -1.2117 C.ar    
  17 C17            0.0180    -2.0935    -1.2189 C.ar    
  18 C18            0.0445    -2.7875    -0.0305 C.ar    
  19 C19           -0.0225     0.0262    -2.4479 C.1     
  20 N20           -0.0400     0.5992    -3.4286 N.1     
  21 H21            1.0042     1.8801     0.0026 H       
  22 H22           -0.5455     1.8639    -0.8728 H       
  23 H23           -0.5286     1.8543     0.9071 H       
  24 H24            0.1275    -4.8932     6.6126 H       
  25 H25            0.1672    -7.1165     7.6678 H       
  26 H26            0.1619    -9.0045     3.9722 H       
  27 H27            0.1146    -6.8466     2.7893 H       
  28 H28            0.0244    -0.1640     2.1287 H       
  29 H29            0.0157    -2.6288    -2.1569 H       
  30 H30            0.0592    -3.8673    -0.0361 H       
@<TRIPOS>BOND
   1    1   15 1
   2    1   21 1
   3    1   22 1
   4    1   23 1
   5    2    3 1
   6    2    4 2
   7    3    6 1
   8    4    5 1
   9    4    8 1
  10    5    6 2
  11    6    7 1
  12    7   14 ar
  13    7   18 ar
  14    8    9 ar
  15    8   13 ar
  16    9   10 ar
  17    9   24 1
  18   10   11 ar
  19   10   25 1
  20   11   12 ar
  21   12   13 ar
  22   12   26 1
  23   13   27 1
  24   14   15 ar
  25   14   28 1
  26   15   16 ar
  27   16   17 ar
  28   16   19 1
  29   17   18 ar
  30   17   29 1
  31   18   30 1
  32   19   20 3

#	End of record

