#	Name: ASD03082310
#	Creating user name:	WinNT
#	Creation time:	15. 06. 2019 20:27

#	Modifying user name:	WinNT
#	Modification time:	15. 06. 2019 20:27

#	Program:	/corina/corina34_cracker 3.40 0067  02.08.2006

@<TRIPOS>MOLECULE
ASD03082310
  53   56    0    0    0
SMALL
NO_CHARGES


@<TRIPOS>ATOM
   1 N1            -0.0747     1.2003     0.3462 N.pl3   
   2 N2            -0.0482    -0.1633     0.0119 N.2     
   3 C3             1.1779    -0.5847     0.2187 C.2     
   4 N4             1.9190     0.4327     0.6619 N.2     
   5 C5             1.1773     1.5196     0.7448 C.2     
   6 N6             1.6330    -1.8879     0.0092 N.pl3   
   7 C7             2.9892    -2.1884     0.1667 C.ar    
   8 C8             3.9054    -1.1700     0.3911 C.ar    
   9 C9             5.2489    -1.4718     0.5473 C.ar    
  10 C10            5.6760    -2.7906     0.4790 C.ar    
  11 C11            4.7633    -3.8041     0.2555 C.ar    
  12 C12            3.4216    -3.5083     0.1045 C.ar    
  13 C13            1.6341     2.8525     1.1940 C.ar    
  14 C14           -1.2284     2.1001     0.2717 C.3     
  15 C15            2.9948     3.1602     1.2000 C.ar    
  16 C16            3.4194     4.4084     1.6212 C.ar    
  17 C17            2.4881     5.3559     2.0352 C.ar    
  18 C18            1.1336     5.0481     2.0299 C.ar    
  19 C19            0.7048     3.8080     1.6075 C.ar    
  20 C20           -1.9636     2.0841     1.5871 C.2     
  21 N21           -3.0660     2.8417     1.7522 N.am    
  22 C22           -3.7807     2.8262     3.0310 C.3     
  23 O23           -1.5633     1.3895     2.4972 O.2     
  24 C24           -3.5496     3.6807     0.6530 C.3     
  25 O25            4.7510     4.6912     1.6289 O.3     
  26 C26            5.1151     6.0739     1.7019 C.3     
  27 C27            4.2677     6.7368     2.7962 C.3     
  28 O28            2.8876     6.5906     2.4448 O.3     
  29 Cl29           2.2770    -4.7845    -0.1690 Cl      
  30 O30            6.1482    -0.4766     0.7667 O.3     
  31 C31            7.5164    -0.8603     0.9184 C.3     
  32 H32            1.0083    -2.5848    -0.2457 H       
  33 H33            3.5718    -0.1441     0.4437 H       
  34 H34            6.7232    -3.0252     0.6004 H       
  35 H35            5.0985    -4.8294     0.2029 H       
  36 H36           -0.8862     3.1129     0.0591 H       
  37 H37           -1.8973     1.7683    -0.5224 H       
  38 H38            3.7165     2.4247     0.8765 H       
  39 H39            0.4133     5.7848     2.3537 H       
  40 H40           -0.3493     3.5729     1.6048 H       
  41 H41           -3.3742     3.5986     3.6838 H       
  42 H42           -4.8398     3.0173     2.8577 H       
  43 H43           -3.6600     1.8511     3.5029 H       
  44 H44           -4.2533     3.1125     0.0446 H       
  45 H45           -4.0486     4.5603     1.0596 H       
  46 H46           -2.7067     3.9936     0.0367 H       
  47 H47            6.1724     6.1629     1.9513 H       
  48 H48            4.9209     6.5562     0.7439 H       
  49 H49            4.4569     6.2502     3.7531 H       
  50 H50            4.5192     7.7952     2.8654 H       
  51 H51            7.6124    -1.5347     1.7693 H       
  52 H52            7.8542    -1.3661     0.0139 H       
  53 H53            8.1260     0.0273     1.0876 H       
@<TRIPOS>BOND
   1    1    2 1
   2    1    5 1
   3    1   14 1
   4    2    3 2
   5    3    4 1
   6    3    6 1
   7    4    5 2
   8    5   13 1
   9    6    7 1
  10    6   32 1
  11    7    8 ar
  12    7   12 ar
  13    8    9 ar
  14    8   33 1
  15    9   10 ar
  16    9   30 1
  17   10   11 ar
  18   10   34 1
  19   11   12 ar
  20   11   35 1
  21   12   29 1
  22   13   15 ar
  23   13   19 ar
  24   14   20 1
  25   14   36 1
  26   14   37 1
  27   15   16 ar
  28   15   38 1
  29   16   17 ar
  30   16   25 1
  31   17   18 ar
  32   17   28 1
  33   18   19 ar
  34   18   39 1
  35   19   40 1
  36   20   21 am
  37   20   23 2
  38   21   22 1
  39   21   24 1
  40   22   41 1
  41   22   42 1
  42   22   43 1
  43   24   44 1
  44   24   45 1
  45   24   46 1
  46   25   26 1
  47   26   27 1
  48   26   47 1
  49   26   48 1
  50   27   28 1
  51   27   49 1
  52   27   50 1
  53   30   31 1
  54   31   51 1
  55   31   52 1
  56   31   53 1

#	End of record

