#	Name: ASD01200086
#	Creating user name:	WinNT
#	Creation time:	15. 06. 2019 19:08

#	Modifying user name:	WinNT
#	Modification time:	15. 06. 2019 19:08

#	Program:	/corina/corina34_cracker 3.40 0067  02.08.2006

@<TRIPOS>MOLECULE
ASD01200086
  52   54    0    0    0
SMALL
NO_CHARGES


@<TRIPOS>ATOM
   1 C1            -0.0943     1.2190     0.2432 C.2     
   2 C2             0.0223    -0.2479     0.3449 C.ar    
   3 C3             1.2819    -0.8599     0.2878 C.ar    
   4 C4             1.3830    -2.2392     0.3842 C.ar    
   5 C5             0.2469    -3.0089     0.5360 C.ar    
   6 C6            -1.0050    -2.4088     0.5930 C.ar    
   7 C7            -1.1215    -1.0335     0.5045 C.ar    
   8 O8             0.9039     1.9004     0.1093 O.2     
   9 N9            -1.3076     1.8036     0.2929 N.am    
  10 O10            2.3995    -0.1044     0.1381 O.3     
  11 C11            4.6193     0.0837    -0.7987 C.3     
  12 C12            3.6358    -0.8010    -0.0300 C.3     
  13 C13            4.2206    -1.1406     1.3424 C.3     
  14 S14           -0.1020     4.2615     0.0133 S.3     
  15 C15           -1.4174     3.1849     0.1971 C.2     
  16 N16           -2.5323     3.8455     0.2335 N.2     
  17 C17           -2.4523     5.1588     0.1277 C.2     
  18 C18           -1.2110     5.6302    -0.0044 C.2     
  19 C19           -3.6649     6.0533     0.1529 C.3     
  20 O20           -2.1182    -3.1753     0.7418 O.3     
  21 C21           -2.8763    -3.4196    -0.3591 C.ar    
  22 C22           -4.0816    -4.0966    -0.2368 C.ar    
  23 C23           -4.8503    -4.3437    -1.3573 C.ar    
  24 C24           -4.4198    -3.9171    -2.6004 C.ar    
  25 C25           -3.2195    -3.2426    -2.7250 C.ar    
  26 C26           -2.4495    -2.9878    -1.6066 C.ar    
  27 S27           -4.6306    -4.6408     1.3466 S.o2    
  28 O28           -4.5362    -3.4843     2.1669 O.2     
  29 O29           -5.8853    -5.2566     1.0900 O.2     
  30 C30           -3.4046    -5.8796     1.8495 C.3     
  31 H31            2.3527    -2.7127     0.3400 H       
  32 H32            0.3317    -4.0830     0.6106 H       
  33 H33           -2.0950    -0.5685     0.5538 H       
  34 H34           -2.1042     1.2597     0.3957 H       
  35 H35            4.7935     1.0035    -0.2404 H       
  36 H36            5.5623    -0.4477    -0.9270 H       
  37 H37            4.2027     0.3256    -1.7765 H       
  38 H38            3.4616    -1.7208    -0.5883 H       
  39 H39            4.3948    -0.2208     1.9008 H       
  40 H40            3.5200    -1.7708     1.8901 H       
  41 H41            5.1636    -1.6719     1.2142 H       
  42 H42           -0.9345     6.6694    -0.1047 H       
  43 H43           -3.8785     6.3469     1.1806 H       
  44 H44           -3.4725     6.9431    -0.4466 H       
  45 H45           -4.5207     5.5169    -0.2571 H       
  46 H46           -5.7882    -4.8707    -1.2627 H       
  47 H47           -5.0222    -4.1117    -3.4754 H       
  48 H48           -2.8855    -2.9109    -3.6970 H       
  49 H49           -1.5143    -2.4566    -1.7038 H       
  50 H50           -2.4189    -5.4167     1.8975 H       
  51 H51           -3.6686    -6.2747     2.8305 H       
  52 H52           -3.3895    -6.6918     1.1227 H       
@<TRIPOS>BOND
   1    1    2 1
   2    1    8 2
   3    1    9 am
   4    2    3 ar
   5    2    7 ar
   6    3    4 ar
   7    3   10 1
   8    4    5 ar
   9    4   31 1
  10    5    6 ar
  11    5   32 1
  12    6    7 ar
  13    6   20 1
  14    7   33 1
  15    9   15 1
  16    9   34 1
  17   10   12 1
  18   11   12 1
  19   11   35 1
  20   11   36 1
  21   11   37 1
  22   12   13 1
  23   12   38 1
  24   13   39 1
  25   13   40 1
  26   13   41 1
  27   14   15 1
  28   14   18 1
  29   15   16 2
  30   16   17 1
  31   17   18 2
  32   17   19 1
  33   18   42 1
  34   19   43 1
  35   19   44 1
  36   19   45 1
  37   20   21 1
  38   21   22 ar
  39   21   26 ar
  40   22   23 ar
  41   22   27 1
  42   23   24 ar
  43   23   46 1
  44   24   25 ar
  45   24   47 1
  46   25   26 ar
  47   25   48 1
  48   26   49 1
  49   27   28 2
  50   27   29 2
  51   27   30 1
  52   30   50 1
  53   30   51 1
  54   30   52 1

#	End of record

