#	Name: ASD08070217
#	Creating user name:	WinNT
#	Creation time:	15. 06. 2019 21:14

#	Modifying user name:	WinNT
#	Modification time:	15. 06. 2019 21:14

#	Program:	/corina/corina34_cracker 3.40 0067  02.08.2006

@<TRIPOS>MOLECULE
ASD08070217
  31   31    0    0    0
SMALL
NO_CHARGES


@<TRIPOS>ATOM
   1 C1            -0.0167     1.3799     0.0096 C.ar    
   2 C2             0.0021    -0.0041     0.0020 C.ar    
   3 C3             1.2072    -0.6811    -0.0131 C.ar    
   4 C4             2.4063     0.0358    -0.0207 C.ar    
   5 C5             2.3779     1.4314    -0.0129 C.ar    
   6 C6             1.1683     2.0943     0.0022 C.ar    
   7 C7             3.6989    -0.6801    -0.0364 C.2     
   8 N8             4.8539     0.0145    -0.0436 N.am    
   9 O9             3.7205    -1.8955    -0.0427 O.2     
  10 C10            7.2092     0.2044    -0.6743 C.3     
  11 C11            6.1354    -0.6953    -0.0592 C.3     
  12 C12            5.5254    -2.0578     1.9443 C.3     
  13 C13            6.5340    -1.0596     1.3724 C.3     
  14 Cl14          -1.4902    -0.8911     0.0121 Cl      
  15 Cl15           1.2305    -2.4169    -0.0221 Cl      
  16 C16            6.8741     0.4669    -2.1439 C.3     
  17 H17           -0.9606     1.9047     0.0169 H       
  18 H18            3.3014     1.9913    -0.0184 H       
  19 H19            1.1460     3.1740     0.0078 H       
  20 H20            4.8367     0.9843    -0.0386 H       
  21 H21            7.2431     1.1508    -0.1347 H       
  22 H22            8.1792    -0.2882    -0.6052 H       
  23 H23            6.0399    -1.6048    -0.6523 H       
  24 H24            5.8093    -2.3174     2.9641 H       
  25 H25            4.5319    -1.6094     1.9467 H       
  26 H26            5.5163    -2.9578     1.3294 H       
  27 H27            7.5275    -1.5080     1.3699 H       
  28 H28            6.5431    -0.1596     1.9872 H       
  29 H29            7.6391     1.1078    -2.5821 H       
  30 H30            6.8402    -0.4796    -2.6835 H       
  31 H31            5.9042     0.9594    -2.2130 H       
@<TRIPOS>BOND
   1    1    2 ar
   2    1    6 ar
   3    1   17 1
   4    2    3 ar
   5    2   14 1
   6    3    4 ar
   7    3   15 1
   8    4    5 ar
   9    4    7 1
  10    5    6 ar
  11    5   18 1
  12    6   19 1
  13    7    8 am
  14    7    9 2
  15    8   11 1
  16    8   20 1
  17   10   11 1
  18   10   16 1
  19   10   21 1
  20   10   22 1
  21   11   13 1
  22   11   23 1
  23   12   13 1
  24   12   24 1
  25   12   25 1
  26   12   26 1
  27   13   27 1
  28   13   28 1
  29   16   29 1
  30   16   30 1
  31   16   31 1

#	End of record

