#	Name: ASD06020056
#	Creating user name:	WinNT
#	Creation time:	15. 06. 2019 21:04

#	Modifying user name:	WinNT
#	Modification time:	15. 06. 2019 21:04

#	Program:	/corina/corina34_cracker 3.40 0067  02.08.2006

@<TRIPOS>MOLECULE
ASD06020056
  37   40    0    0    0
SMALL
NO_CHARGES


@<TRIPOS>ATOM
   1 C1             0.0027    -0.0072     0.0093 C.1     
   2 C2            -0.0172     1.4245     0.0312 C.ar    
   3 C3             1.1902     2.1503     0.0274 C.ar    
   4 C4             1.1542     3.5453     0.0484 C.ar    
   5 C5            -0.0618     4.2045     0.0728 C.ar    
   6 C6            -1.2467     3.4894     0.0770 C.ar    
   7 C7            -1.2316     2.1090     0.0507 C.ar    
   8 N8             0.0185    -1.1430    -0.0080 N.1     
   9 C9             6.1986     0.2755    -0.0598 C.ar    
  10 C10            4.8501     0.6480    -0.0378 C.ar    
  11 C11            3.8602    -0.3417    -0.0404 C.ar    
  12 C12            4.2978    -1.6921    -0.0651 C.ar    
  13 C13            5.6307    -1.9645    -0.0848 C.ar    
  14 N14            6.5391    -1.0007    -0.0827 N.ar    
  15 S15            4.0607     2.2209    -0.0057 S.3     
  16 C16            2.4844     1.4402     0.0017 C.2     
  17 N17            2.6228     0.1543    -0.0185 N.2     
  18 N18            7.1881     1.2564    -0.0632 N.pl3   
  19 C19           10.1359    -0.7227     0.3082 C.ar    
  20 N20            8.8678    -0.3752     0.2225 N.ar    
  21 C21            8.5237     0.8943     0.0269 C.ar    
  22 C22            9.5290     1.8570    -0.0866 C.ar    
  23 C23           10.8439     1.4461     0.0097 C.ar    
  24 N24           11.1073     0.1616     0.2052 N.ar    
  25 C25           11.9657     2.4456    -0.1066 C.3     
  26 F26            3.3973    -2.6992    -0.0685 F       
  27 F27            2.3060     4.2514     0.0454 F       
  28 H28           -0.0867     5.2841     0.0891 H       
  29 H29           -2.1900     4.0149     0.0969 H       
  30 H30           -2.1611     1.5591     0.0496 H       
  31 H31            5.9567    -2.9940    -0.1036 H       
  32 H32            6.9427     2.1926    -0.1287 H       
  33 H33           10.3859    -1.7605     0.4718 H       
  34 H34            9.2842     2.8968    -0.2461 H       
  35 H35           12.2084     2.8360     0.8817 H       
  36 H36           12.8438     1.9585    -0.5306 H       
  37 H37           11.6563     3.2653    -0.7550 H       
@<TRIPOS>BOND
   1    1    2 1
   2    1    8 3
   3    2    3 ar
   4    2    7 ar
   5    3    4 ar
   6    3   16 1
   7    4    5 ar
   8    4   27 1
   9    5    6 ar
  10    5   28 1
  11    6    7 ar
  12    6   29 1
  13    7   30 1
  14    9   10 ar
  15    9   14 ar
  16    9   18 1
  17   10   11 ar
  18   10   15 1
  19   11   12 ar
  20   11   17 1
  21   12   13 ar
  22   12   26 1
  23   13   14 ar
  24   13   31 1
  25   15   16 1
  26   16   17 2
  27   18   21 1
  28   18   32 1
  29   19   20 ar
  30   19   24 ar
  31   19   33 1
  32   20   21 ar
  33   21   22 ar
  34   22   23 ar
  35   22   34 1
  36   23   24 ar
  37   23   25 1
  38   25   35 1
  39   25   36 1
  40   25   37 1

#	End of record

