#	Name: ASD03091880
#	Creating user name:	WinNT
#	Creation time:	15. 06. 2019 20:31

#	Modifying user name:	WinNT
#	Modification time:	15. 06. 2019 20:31

#	Program:	/corina/corina34_cracker 3.40 0067  02.08.2006

@<TRIPOS>MOLECULE
ASD03091880
  53   56    0    0    0
SMALL
NO_CHARGES


@<TRIPOS>ATOM
   1 C1             0.4584     3.3331    -0.7880 C.ar    
   2 C2             0.2577     2.0699    -0.2628 C.ar    
   3 C3             1.3396     1.2490    -0.0174 C.ar    
   4 C4             2.6297     1.6910    -0.2972 C.ar    
   5 C5             2.8317     2.9597    -0.8107 C.ar    
   6 C6             1.7377     3.7754    -1.0603 C.ar    
   7 N7             3.7015     0.8358    -0.0664 N.pl3   
   8 C8             5.0717     1.1999    -0.3618 C.3     
   9 C9             5.3190     2.6758    -0.4581 C.3     
  10 C10            4.2044     3.5017    -1.0946 C.3     
  11 C11            5.4566     3.3378     0.9284 C.3     
  12 C12            4.9995     4.7625     0.6949 C.2     
  13 C13            4.3179     4.8582    -0.4170 C.2     
  14 C14            5.4625     0.5643    -1.6711 C.ar    
  15 C15            4.5057     0.3399    -2.6433 C.ar    
  16 C16            4.8642    -0.2432    -3.8443 C.ar    
  17 C17            6.1796    -0.6014    -4.0733 C.ar    
  18 C18            7.1365    -0.3761    -3.1015 C.ar    
  19 C19            6.7788     0.2109    -1.9022 C.ar    
  20 C20            3.0718     0.7303    -2.3936 C.3     
  21 C21            3.8210    -0.4888    -4.9037 C.3     
  22 C22            8.5704    -0.7670    -3.3510 C.3     
  23 C23            7.8229     0.4612    -0.8448 C.3     
  24 S24           -0.9218     4.3778    -1.1174 S.o2    
  25 O25           -0.4974     5.3025    -2.1094 O.2     
  26 O26           -2.0432     3.5209    -1.2827 O.2     
  27 N27           -1.2063     5.2611     0.2542 N.am    
  28 H28           -0.7429     1.7268    -0.0448 H       
  29 H29            1.1851     0.2620     0.3929 H       
  30 H30            1.8877     4.7632    -1.4702 H       
  31 H31            3.5241    -0.0411     0.3083 H       
  32 H32            5.7130     0.7928     0.4199 H       
  33 H33            6.2348     2.8468    -1.0239 H       
  34 H34            4.3627     3.5872    -2.1696 H       
  35 H35            4.8118     2.8430     1.6547 H       
  36 H36            6.4946     3.3183     1.2606 H       
  37 H37            5.2085     5.5890     1.3579 H       
  38 H38            3.8945     5.7744    -0.8013 H       
  39 H39            6.4595    -1.0575    -5.0114 H       
  40 H40            3.0069     1.8105    -2.2626 H       
  41 H41            2.4600     0.4302    -3.2444 H       
  42 H42            2.7112     0.2328    -1.4933 H       
  43 H43            3.7533     0.3821    -5.5558 H       
  44 H44            4.0998    -1.3627    -5.4925 H       
  45 H45            2.8553    -0.6633    -4.4292 H       
  46 H46            9.1005     0.0685    -3.8083 H       
  47 H47            9.0464    -1.0254    -2.4051 H       
  48 H48            8.6014    -1.6269    -4.0202 H       
  49 H49            7.9123    -0.4183    -0.2071 H       
  50 H50            8.7820     0.6631    -1.3218 H       
  51 H51            7.5297     1.3198    -0.2406 H       
  52 H52           -0.6455     5.1372     1.0359 H       
  53 H53           -1.9338     5.9023     0.2759 H       
@<TRIPOS>BOND
   1    1    2 ar
   2    1    6 ar
   3    1   24 1
   4    2    3 ar
   5    2   28 1
   6    3    4 ar
   7    3   29 1
   8    4    5 ar
   9    4    7 1
  10    5    6 ar
  11    5   10 1
  12    6   30 1
  13    7    8 1
  14    7   31 1
  15    8    9 1
  16    8   14 1
  17    8   32 1
  18    9   11 1
  19    9   10 1
  20    9   33 1
  21   10   13 1
  22   10   34 1
  23   11   12 1
  24   11   35 1
  25   11   36 1
  26   12   13 2
  27   12   37 1
  28   13   38 1
  29   14   15 ar
  30   14   19 ar
  31   15   16 ar
  32   15   20 1
  33   16   17 ar
  34   16   21 1
  35   17   18 ar
  36   17   39 1
  37   18   19 ar
  38   18   22 1
  39   19   23 1
  40   20   40 1
  41   20   41 1
  42   20   42 1
  43   21   43 1
  44   21   44 1
  45   21   45 1
  46   22   46 1
  47   22   47 1
  48   22   48 1
  49   23   49 1
  50   23   50 1
  51   23   51 1
  52   24   25 2
  53   24   26 2
  54   24   27 am
  55   27   52 1
  56   27   53 1

#	End of record

