#	Name: ASD00170767
#	Creating user name:	WinNT
#	Creation time:	15. 06. 2019 18:32

#	Modifying user name:	WinNT
#	Modification time:	15. 06. 2019 18:32

#	Program:	/corina/corina34_cracker 3.40 0067  02.08.2006

@<TRIPOS>MOLECULE
ASD00170767
  67   71    0    0    0
SMALL
NO_CHARGES


@<TRIPOS>ATOM
   1 C1             2.0348     1.3974     0.6735 C.3     
   2 O2             1.3904     0.1737     0.3137 O.3     
   3 C3             1.8638    -0.4733    -0.7837 C.ar    
   4 C4             1.2823    -1.6676    -1.1877 C.ar    
   5 C5             1.7595    -2.3272    -2.3004 C.ar    
   6 C6             2.8286    -1.7924    -3.0214 C.ar    
   7 C7             3.4101    -0.5912    -2.6121 C.ar    
   8 C8             2.9238     0.0646    -1.5011 C.ar    
   9 C9             3.3438    -2.4965    -4.2147 C.2     
  10 S10            3.7807    -4.1968    -4.2673 S.3     
  11 C11            4.2230    -4.0931    -5.9116 C.2     
  12 C12            4.0378    -2.8122    -6.3778 C.2     
  13 C13            3.5393    -1.9307    -5.4138 C.2     
  14 C14            3.2573    -0.4771    -5.6944 C.3     
  15 C15            1.7916    -0.3111    -6.1006 C.3     
  16 C16            0.8900    -0.7012    -4.9276 C.3     
  17 C17            1.5301     1.1474    -6.4817 C.3     
  18 C18            1.4890    -1.2134    -7.2986 C.3     
  19 C19            4.3305    -2.4107    -7.7566 C.2     
  20 O20            3.5139    -2.6139    -8.6361 O.2     
  21 C21            5.6181    -1.7586    -8.0793 C.ar    
  22 C22            5.8598    -1.2846    -9.3699 C.ar    
  23 C23            7.0627    -0.6769    -9.6641 C.ar    
  24 C24            8.0288    -0.5371    -8.6834 C.ar    
  25 C25            7.7957    -1.0047    -7.4022 C.ar    
  26 C26            6.5948    -1.6091    -7.0931 C.ar    
  27 C27            9.3410     0.1270    -9.0124 C.3     
  28 N28            4.7019    -5.1504    -6.6708 N.am    
  29 C29            6.0057    -5.4263    -6.8547 C.2     
  30 O30            6.9354    -4.7985    -6.3896 O.2     
  31 C31            6.1172    -6.6214    -7.7169 C.ar    
  32 C32            4.7939    -7.0086    -8.0123 C.ar    
  33 C33            3.9237    -6.0384    -7.3155 C.2     
  34 O34            2.7094    -6.0388    -7.3283 O.2     
  35 C35            4.5625    -8.1147    -8.8143 C.ar    
  36 C36            5.6346    -8.8329    -9.3205 C.ar    
  37 C37            6.9319    -8.4535    -9.0304 C.ar    
  38 C38            7.1789    -7.3491    -8.2301 C.ar    
  39 H39            3.0884     1.2069     0.8776 H       
  40 H40            1.9466     2.1094    -0.1471 H       
  41 H41            1.5608     1.8093     1.5644 H       
  42 H42            0.4552    -2.0807    -0.6293 H       
  43 H43            1.3071    -3.2566    -2.6136 H       
  44 H44            4.2376    -0.1743    -3.1670 H       
  45 H45            3.3731     0.9941    -1.1838 H       
  46 H46            3.4548     0.1109    -4.7981 H       
  47 H47            3.9001    -0.1320    -6.5042 H       
  48 H48            1.1766    -0.1313    -4.0438 H       
  49 H49           -0.1480    -0.4839    -5.1793 H       
  50 H50            0.9991    -1.7665    -4.7242 H       
  51 H51            2.1724     1.4254    -7.3173 H       
  52 H52            0.4859     1.2657    -6.7710 H       
  53 H53            1.7457     1.7903    -5.6282 H       
  54 H54            1.6753    -2.2524    -7.0270 H       
  55 H55            0.4448    -1.0951    -7.5879 H       
  56 H56            2.1313    -0.9354    -8.1342 H       
  57 H57            5.1068    -1.3938   -10.1364 H       
  58 H58            7.2510    -0.3098   -10.6622 H       
  59 H59            8.5539    -0.8924    -6.6413 H       
  60 H60            6.4138    -1.9733    -6.0926 H       
  61 H61            9.2900     1.1832    -8.7481 H       
  62 H62           10.1416    -0.3507    -8.4475 H       
  63 H63            9.5405     0.0287   -10.0794 H       
  64 H64            3.5511    -8.4161    -9.0436 H       
  65 H65            5.4551    -9.6951    -9.9456 H       
  66 H66            7.7588    -9.0215    -9.4306 H       
  67 H67            8.1945    -7.0572    -8.0071 H       
@<TRIPOS>BOND
   1    1    2 1
   2    1   39 1
   3    1   40 1
   4    1   41 1
   5    2    3 1
   6    3    4 ar
   7    3    8 ar
   8    4    5 ar
   9    4   42 1
  10    5    6 ar
  11    5   43 1
  12    6    7 ar
  13    6    9 1
  14    7    8 ar
  15    7   44 1
  16    8   45 1
  17    9   10 1
  18    9   13 2
  19   10   11 1
  20   11   12 2
  21   11   28 1
  22   12   13 1
  23   12   19 1
  24   13   14 1
  25   14   15 1
  26   14   46 1
  27   14   47 1
  28   15   16 1
  29   15   17 1
  30   15   18 1
  31   16   48 1
  32   16   49 1
  33   16   50 1
  34   17   51 1
  35   17   52 1
  36   17   53 1
  37   18   54 1
  38   18   55 1
  39   18   56 1
  40   19   20 2
  41   19   21 1
  42   21   22 ar
  43   21   26 ar
  44   22   23 ar
  45   22   57 1
  46   23   24 ar
  47   23   58 1
  48   24   25 ar
  49   24   27 1
  50   25   26 ar
  51   25   59 1
  52   26   60 1
  53   27   61 1
  54   27   62 1
  55   27   63 1
  56   28   29 am
  57   28   33 am
  58   29   30 2
  59   29   31 1
  60   31   32 ar
  61   31   38 ar
  62   32   33 1
  63   32   35 ar
  64   33   34 2
  65   35   36 ar
  66   35   64 1
  67   36   37 ar
  68   36   65 1
  69   37   38 ar
  70   37   66 1
  71   38   67 1

#	End of record

