#	Name: ASD01914128
#	Creating user name:	WinNT
#	Creation time:	15. 06. 2019 20:02

#	Modifying user name:	WinNT
#	Modification time:	15. 06. 2019 20:02

#	Program:	/corina/corina34_cracker 3.40 0067  02.08.2006

@<TRIPOS>MOLECULE
ASD01914128
  44   47    0    0    0
SMALL
NO_CHARGES


@<TRIPOS>ATOM
   1 C1            -0.8220     1.6238    -0.1857 C.2     
   2 C2            -0.6641     0.1638    -0.1776 C.2     
   3 N3            -1.6332    -0.7376    -0.1137 N.2     
   4 C4            -1.0172    -1.9287    -0.1340 C.2     
   5 N5             0.2630    -1.7105    -0.2072 N.2     
   6 O6             0.4913    -0.5198    -0.2394 O.3     
   7 C7            -1.6877    -3.2773    -0.0814 C.3     
   8 C8            -1.3390    -4.0706    -1.3428 C.3     
   9 C9            -2.0458    -5.4276    -1.3058 C.3     
  10 C10           -1.5599    -6.2188    -0.0873 C.3     
  11 N11           -1.7591    -5.4016     1.1173 N.am    
  12 C12           -1.1977    -4.0442     1.1510 C.3     
  13 C13           -0.0734    -6.5440    -0.2465 C.3     
  14 C14           -2.4438    -5.8878     2.1715 C.2     
  15 C15           -2.5253    -5.1050     3.4267 C.ar    
  16 C16           -3.7184    -5.0345     4.1531 C.ar    
  17 C17           -3.7516    -4.2938     5.3180 C.ar    
  18 N18           -2.6794    -3.6584     5.7480 N.ar    
  19 C19           -1.5334    -3.6978     5.0942 C.ar    
  20 C20           -1.4108    -4.4218     3.9201 C.ar    
  21 O21           -2.9942    -6.9683     2.0924 O.2     
  22 C22            0.1941     2.5517    -0.2525 C.2     
  23 C23           -0.4027     3.8190    -0.2342 C.2     
  24 C24           -1.7430     3.6448    -0.1581 C.2     
  25 N25           -2.0110     2.3123    -0.1340 N.pl3   
  26 Cl26           0.4287     5.3416    -0.2971 Cl      
  27 F27           -0.4653    -3.0277     5.5793 F       
  28 H28           -2.7679    -3.1445    -0.0221 H       
  29 H29           -1.6647    -3.5155    -2.2225 H       
  30 H30           -0.2608    -4.2239    -1.3890 H       
  31 H31           -3.1227    -5.2750    -1.2347 H       
  32 H32           -1.8157    -5.9825    -2.2153 H       
  33 H33           -2.1310    -7.1431    -0.0004 H       
  34 H34           -0.1092    -4.0986     1.1386 H       
  35 H35           -1.5299    -3.5337     2.0549 H       
  36 H36            0.4948    -5.6173    -0.3267 H       
  37 H37            0.2703    -7.1069     0.6214 H       
  38 H38            0.0738    -7.1396    -1.1474 H       
  39 H39           -4.6013    -5.5517     3.8076 H       
  40 H40           -4.6690    -4.2338     5.8848 H       
  41 H41           -0.4707    -4.4506     3.3893 H       
  42 H42            1.2520     2.3416    -0.3080 H       
  43 H43           -2.4788     4.4348    -0.1266 H       
  44 H44           -2.8938     1.9136    -0.0823 H       
@<TRIPOS>BOND
   1    1    2 1
   2    1   22 2
   3    1   25 1
   4    2    3 2
   5    2    6 1
   6    3    4 1
   7    4    5 2
   8    4    7 1
   9    5    6 1
  10    7    8 1
  11    7   12 1
  12    7   28 1
  13    8    9 1
  14    8   29 1
  15    8   30 1
  16    9   10 1
  17    9   31 1
  18    9   32 1
  19   10   11 1
  20   10   13 1
  21   10   33 1
  22   11   12 1
  23   11   14 am
  24   12   34 1
  25   12   35 1
  26   13   36 1
  27   13   37 1
  28   13   38 1
  29   14   15 1
  30   14   21 2
  31   15   16 ar
  32   15   20 ar
  33   16   17 ar
  34   16   39 1
  35   17   18 ar
  36   17   40 1
  37   18   19 ar
  38   19   20 ar
  39   19   27 1
  40   20   41 1
  41   22   23 1
  42   22   42 1
  43   23   24 2
  44   23   26 1
  45   24   25 1
  46   24   43 1
  47   25   44 1

#	End of record

