#	Name: ASD01028516
#	Creating user name:	WinNT
#	Creation time:	15. 06. 2019 18:57

#	Modifying user name:	WinNT
#	Modification time:	15. 06. 2019 18:57

#	Program:	/corina/corina34_cracker 3.40 0067  02.08.2006

@<TRIPOS>MOLECULE
ASD01028516
  41   44    0    0    0
SMALL
NO_CHARGES


@<TRIPOS>ATOM
   1 C1            -0.0184     1.5028     0.0103 C.3     
   2 C2             0.0021    -0.0041     0.0020 C.2     
   3 N3             0.0235    -0.8149     1.0952 N.pl3   
   4 C4             0.0364    -2.0997     0.6101 C.2     
   5 N5             0.0227    -2.0106    -0.7100 N.2     
   6 N6            -0.0032    -0.7719    -1.0568 N.2     
   7 C7             0.0334    -0.5807     2.4373 C.2     
   8 C8             0.0562    -1.6187     3.3170 C.2     
   9 C9             0.0703    -2.9515     2.8419 C.2     
  10 C10            0.0592    -3.1881     1.5050 C.2     
  11 C11            0.0669    -1.3524     4.7770 C.ar    
  12 C12           -1.0125    -1.7430     5.5668 C.ar    
  13 C13           -0.9974    -1.4928     6.9241 C.ar    
  14 C14            0.0864    -0.8552     7.5003 C.ar    
  15 C15            1.1604    -0.4649     6.7209 C.ar    
  16 C16            1.1588    -0.7160     5.3637 C.ar    
  17 C17            1.3954     2.0244    -0.0004 C.ar    
  18 C18            2.0315     2.2697    -1.2033 C.ar    
  19 C19            3.3275     2.7479    -1.2158 C.ar    
  20 C20            3.9908     2.9819    -0.0200 C.ar    
  21 C21            3.3504     2.7350     1.1856 C.ar    
  22 C22            2.0524     2.2622     1.1928 C.ar    
  23 O23            5.2659     3.4519    -0.0297 O.3     
  24 C24            5.8867     3.6697     1.2389 C.3     
  25 H25           -0.5455     1.8639    -0.8728 H       
  26 H26           -0.5286     1.8543     0.9071 H       
  27 H27            0.0234     0.4347     2.8052 H       
  28 H28            0.0888    -3.7761     3.5391 H       
  29 H29            0.0696    -4.2012     1.1308 H       
  30 H30           -1.8596    -2.2402     5.1178 H       
  31 H31           -1.8335    -1.7951     7.5372 H       
  32 H32            0.0940    -0.6611     8.5627 H       
  33 H33            2.0040     0.0329     7.1759 H       
  34 H34            1.9980    -0.4112     4.7561 H       
  35 H35            1.5148     2.0870    -2.1339 H       
  36 H36            3.8240     2.9390    -2.1557 H       
  37 H37            3.8647     2.9164     2.1178 H       
  38 H38            1.5534     2.0698     2.1311 H       
  39 H39            5.3094     4.4005     1.8052 H       
  40 H40            5.9249     2.7304     1.7907 H       
  41 H41            6.8992     4.0441     1.0884 H       
@<TRIPOS>BOND
   1    1    2 1
   2    1   17 1
   3    1   25 1
   4    1   26 1
   5    2    3 1
   6    2    6 2
   7    3    4 1
   8    3    7 1
   9    4    5 2
  10    4   10 1
  11    5    6 1
  12    7    8 2
  13    7   27 1
  14    8    9 1
  15    8   11 1
  16    9   10 2
  17    9   28 1
  18   10   29 1
  19   11   12 ar
  20   11   16 ar
  21   12   13 ar
  22   12   30 1
  23   13   14 ar
  24   13   31 1
  25   14   15 ar
  26   14   32 1
  27   15   16 ar
  28   15   33 1
  29   16   34 1
  30   17   18 ar
  31   17   22 ar
  32   18   19 ar
  33   18   35 1
  34   19   20 ar
  35   19   36 1
  36   20   21 ar
  37   20   23 1
  38   21   22 ar
  39   21   37 1
  40   22   38 1
  41   23   24 1
  42   24   39 1
  43   24   40 1
  44   24   41 1

#	End of record

