#	Name: ASD03731286
#	Creating user name:	WinNT
#	Creation time:	15. 06. 2019 20:45

#	Modifying user name:	WinNT
#	Modification time:	15. 06. 2019 20:45

#	Program:	/corina/corina34_cracker 3.40 0067  02.08.2006

@<TRIPOS>MOLECULE
ASD03731286
  53   57    0    0    0
SMALL
NO_CHARGES


@<TRIPOS>ATOM
   1 N1            -0.0162     1.3436     0.0094 N.am    
   2 C2             0.0021    -0.0041     0.0020 C.2     
   3 O3             1.0631    -0.5976    -0.0113 O.2     
   4 N4            -1.1558    -0.6938     0.0094 N.am    
   5 C5            -1.1360    -2.1586     0.0013 C.3     
   6 C6            -2.5713    -2.6882     0.0122 C.3     
   7 C7            -2.5506    -4.2180     0.0038 C.3     
   8 C8             1.2424     2.0932     0.0014 C.3     
   9 C9             0.9425     3.5935     0.0124 C.3     
  10 O10            7.6135     2.0776    -2.1992 O.3     
  11 C11            8.9864     2.4295    -2.4527 C.3     
  12 O12            8.9067     3.7735    -2.9629 O.3     
  13 C13            7.7690     4.3025    -2.4238 C.ar    
  14 C14            6.9737     3.2591    -1.9553 C.ar    
  15 C15            7.3411     5.6114    -2.2918 C.ar    
  16 C16            6.1170     5.8961    -1.6943 C.ar    
  17 C17            5.3276     4.8450    -1.2377 C.ar    
  18 C18            5.7542     3.5392    -1.3622 C.ar    
  19 O19            5.5236     7.1003    -1.4533 O.3     
  20 C20            4.0742     5.4619    -0.6771 C.3     
  21 C21            4.1170     6.8980    -1.2168 C.3     
  22 N22            2.2011     4.3432     0.0044 N.am    
  23 C23            2.8367     4.7347    -1.1181 C.2     
  24 C24            4.0424     5.4282     0.8221 C.ar    
  25 C25            4.8782     5.9144     1.8026 C.ar    
  26 C26            4.5685     5.7189     3.1367 C.ar    
  27 C27            3.4181     5.0336     3.4830 C.ar    
  28 C28            2.5784     4.5438     2.5046 C.ar    
  29 C29            2.8820     4.7363     1.1591 C.ar    
  30 O30            2.4789     4.5384    -2.2602 O.2     
  31 H31           -0.8627     1.8171     0.0160 H       
  32 H32           -2.0023    -0.2203     0.0200 H       
  33 H33           -0.6258    -2.5101    -0.8955 H       
  34 H34           -0.6088    -2.5197     0.8844 H       
  35 H35           -3.0815    -2.3367     0.9090 H       
  36 H36           -3.0985    -2.3271    -0.8709 H       
  37 H37           -3.5732    -4.5953     0.0115 H       
  38 H38           -2.0404    -4.5695    -0.8930 H       
  39 H39           -2.0234    -4.5791     0.8868 H       
  40 H40            1.8260     1.8329     0.8845 H       
  41 H41            1.8090     1.8425    -0.8954 H       
  42 H42            0.3589     3.8538    -0.8707 H       
  43 H43            0.3759     3.8443     0.9091 H       
  44 H44            9.5650     2.4041    -1.5293 H       
  45 H45            9.4216     1.7625    -3.1969 H       
  46 H46            7.9611     6.4176    -2.6550 H       
  47 H47            5.1354     2.7332    -0.9965 H       
  48 H48            3.7442     7.6023    -0.4731 H       
  49 H49            3.5525     6.9794    -2.1457 H       
  50 H50            5.7760     6.4491     1.5299 H       
  51 H51            5.2233     6.1009     3.9060 H       
  52 H52            3.1765     4.8809     4.5245 H       
  53 H53            1.6822     4.0092     2.7829 H       
@<TRIPOS>BOND
   1    1    2 am
   2    1    8 1
   3    1   31 1
   4    2    3 2
   5    2    4 am
   6    4    5 1
   7    4   32 1
   8    5    6 1
   9    5   33 1
  10    5   34 1
  11    6    7 1
  12    6   35 1
  13    6   36 1
  14    7   37 1
  15    7   38 1
  16    7   39 1
  17    8    9 1
  18    8   40 1
  19    8   41 1
  20    9   22 1
  21    9   42 1
  22    9   43 1
  23   10   11 1
  24   10   14 1
  25   11   12 1
  26   11   44 1
  27   11   45 1
  28   12   13 1
  29   13   14 ar
  30   13   15 ar
  31   14   18 ar
  32   15   16 ar
  33   15   46 1
  34   16   17 ar
  35   16   19 1
  36   17   18 ar
  37   17   20 1
  38   18   47 1
  39   19   21 1
  40   20   21 1
  41   20   23 1
  42   20   24 1
  43   21   48 1
  44   21   49 1
  45   22   23 am
  46   22   29 1
  47   23   30 2
  48   24   25 ar
  49   24   29 ar
  50   25   26 ar
  51   25   50 1
  52   26   27 ar
  53   26   51 1
  54   27   28 ar
  55   27   52 1
  56   28   29 ar
  57   28   53 1

#	End of record

