#	Name: ASD09610010
#	Creating user name:	WinNT
#	Creation time:	15. 06. 2019 21:22

#	Modifying user name:	WinNT
#	Modification time:	15. 06. 2019 21:22

#	Program:	/corina/corina34_cracker 3.40 0067  02.08.2006

@<TRIPOS>MOLECULE
ASD09610010
  41   42    0    0    0
SMALL
NO_CHARGES


@<TRIPOS>ATOM
   1 C1            -0.8739    -0.3462    -0.1808 C.2     
   2 C2            -0.1114    -1.5436     0.3250 C.3     
   3 O3            -0.2725     0.6117    -0.6361 O.co2   
   4 O4            -2.0924    -0.3374    -0.1395 O.co2   
   5 O5             1.2906    -1.3178     0.1652 O.3     
   6 N6             4.0377    -1.1594    -0.2501 N.ar    
   7 C7             5.3341    -1.0791    -0.4267 C.ar    
   8 C8             5.9265    -1.3757    -1.6525 C.ar    
   9 C9             5.1511    -1.7619    -2.7084 C.ar    
  10 C10            3.7596    -1.8469    -2.5145 C.ar    
  11 C11            2.8986    -2.2374    -3.5540 C.ar    
  12 C12            1.5562    -2.3086    -3.3282 C.ar    
  13 C13            1.0234    -1.9994    -2.0800 C.ar    
  14 C14            1.8293    -1.6161    -1.0460 C.ar    
  15 C15            3.2231    -1.5310    -1.2420 C.ar    
  16 Cl16           3.5415    -2.6269    -5.1188 Cl      
  17 C17            0.3467    -2.9766     2.3198 C.3     
  18 C18           -0.4274    -1.7609     1.8062 C.3     
  19 C19           -0.0165    -0.5208     2.6026 C.3     
  20 C20           -0.4452    -0.6868     4.0619 C.3     
  21 C21           -0.0343     0.5533     4.8584 C.3     
  22 C22            5.7682    -2.0876    -4.0442 C.3     
  23 H23           -0.4042    -2.4270    -0.2424 H       
  24 H24            5.9594    -0.7746     0.3995 H       
  25 H25            6.9977    -1.3000    -1.7675 H       
  26 H26            0.8968    -2.6091    -4.1290 H       
  27 H27           -0.0438    -2.0633    -1.9269 H       
  28 H28            1.4161    -2.8044     2.1979 H       
  29 H29            0.1216    -3.1314     3.3750 H       
  30 H30            0.0540    -3.8600     1.7524 H       
  31 H31           -1.4968    -1.9331     1.9281 H       
  32 H32            1.0657    -0.3996     2.5534 H       
  33 H33           -0.5003     0.3595     2.1796 H       
  34 H34           -1.5273    -0.8080     4.1111 H       
  35 H35            0.0387    -1.5671     4.4849 H       
  36 H36            1.0479     0.6746     4.8091 H       
  37 H37           -0.5181     1.4336     4.4353 H       
  38 H38           -0.3397     0.4351     5.8980 H       
  39 H39            5.7480    -3.1661    -4.2005 H       
  40 H40            5.2027    -1.5952    -4.8353 H       
  41 H41            6.8001    -1.7369    -4.0629 H       
@<TRIPOS>BOND
   1    1    2 1
   2    1    3 ar
   3    1    4 ar
   4    2    5 1
   5    2   18 1
   6    2   23 1
   7    5   14 1
   8    6    7 ar
   9    6   15 ar
  10    7    8 ar
  11    7   24 1
  12    8    9 ar
  13    8   25 1
  14    9   10 ar
  15    9   22 1
  16   10   11 ar
  17   10   15 ar
  18   11   12 ar
  19   11   16 1
  20   12   13 ar
  21   12   26 1
  22   13   14 ar
  23   13   27 1
  24   14   15 ar
  25   17   18 1
  26   17   28 1
  27   17   29 1
  28   17   30 1
  29   18   19 1
  30   18   31 1
  31   19   20 1
  32   19   32 1
  33   19   33 1
  34   20   21 1
  35   20   34 1
  36   20   35 1
  37   21   36 1
  38   21   37 1
  39   21   38 1
  40   22   39 1
  41   22   40 1
  42   22   41 1

#	End of record

