#	Name: ASD05430134
#	Creating user name:	WinNT
#	Creation time:	15. 06. 2019 20:59

#	Modifying user name:	WinNT
#	Modification time:	15. 06. 2019 20:59

#	Program:	/corina/corina34_cracker 3.40 0067  02.08.2006

@<TRIPOS>MOLECULE
ASD05430134
  69   75    0    0    0
SMALL
NO_CHARGES


@<TRIPOS>ATOM
   1 C1             0.1689     0.9582    -0.0587 C.ar    
   2 C2             0.1935    -0.1563    -0.8988 C.ar    
   3 C3             1.3716    -0.5305    -1.5320 C.ar    
   4 C4             2.5233     0.1974    -1.3338 C.ar    
   5 C5             2.5047     1.3143    -0.4943 C.ar    
   6 C6             1.3122     1.6898     0.1442 C.ar    
   7 C7             5.0006    -0.0412    -0.1307 C.3     
   8 C8             4.9199     1.4681    -0.1737 C.2     
   9 C9             3.7338     2.0953    -0.2790 C.2     
  10 C10            6.3216    -0.4790     0.4929 C.3     
  11 C11            6.9079     0.5117     1.4966 C.3     
  12 N12            7.1244     1.7944     0.8269 N.pl3   
  13 C13            6.1773     2.2323    -0.0965 C.2     
  14 C14            9.4075     1.7853     1.6524 C.ar    
  15 C15           10.2524     1.1157     0.7870 C.ar    
  16 C16           11.2824     0.3416     1.2869 C.ar    
  17 C17           11.4678     0.2369     2.6550 C.ar    
  18 C18           10.6209     0.9080     3.5208 C.ar    
  19 C19            9.5917     1.6815     3.0185 C.ar    
  20 N20           -0.9747    -0.9005    -1.1037 N.pl3   
  21 C21           -1.4988    -1.2786    -2.3131 C.2     
  22 C22           -2.6209    -1.9753    -2.0511 C.2     
  23 N23           -2.7824    -2.0246    -0.7204 N.2     
  24 C24           -1.8000    -1.3897    -0.1415 C.2     
  25 C25           -3.5372    -2.5927    -3.0759 C.3     
  26 N26            6.4128     3.2522    -0.8554 N.2     
  27 C27            8.2885     2.6340     1.1058 C.3     
  28 C28            8.7330     3.2931    -0.2045 C.3     
  29 O29            7.6318     3.9577    -0.8152 O.3     
  30 F30           12.4741    -0.5199     3.1449 F       
  31 C31            6.3003    -1.9262     1.0118 C.3     
  32 O32            7.5995    -2.0438     0.3967 O.3     
  33 C33            7.3478    -0.9754    -0.5388 C.3     
  34 C34            7.9141     3.7127     2.1243 C.3     
  35 O35            9.0547     4.5303     2.3934 O.3     
  36 C36            0.6213     2.6541     1.0712 C.3     
  37 C37           -0.6481     1.8454     0.8430 C.3     
  38 C38           -3.7047    -4.0840    -2.7777 C.3     
  39 H39            1.3844    -1.3940    -2.1806 H       
  40 H40            3.4393    -0.0944    -1.8258 H       
  41 H41            4.1739    -0.4305     0.4637 H       
  42 H42            4.9312    -0.4358    -1.1444 H       
  43 H43            3.6837     3.1717    -0.2055 H       
  44 H44            6.2129     0.6457     2.3256 H       
  45 H45            7.8577     0.1314     1.8725 H       
  46 H46           10.1074     1.1972    -0.2801 H       
  47 H47           11.9422    -0.1817     0.6107 H       
  48 H48           10.7646     0.8270     4.5881 H       
  49 H49            8.9310     2.2050     3.6936 H       
  50 H50           -1.0905    -1.0591    -3.2885 H       
  51 H51           -1.6692    -1.2669     0.9235 H       
  52 H52           -4.5100    -2.1026    -3.0356 H       
  53 H53           -3.1078    -2.4669    -4.0698 H       
  54 H54            9.5215     4.0163     0.0038 H       
  55 H55            9.1151     2.5294    -0.8819 H       
  56 H56            6.3179    -2.0055     2.0988 H       
  57 H57            5.5351    -2.5496     0.5493 H       
  58 H58            6.9045    -1.3065    -1.4780 H       
  59 H59            8.1939    -0.3026    -0.6784 H       
  60 H60            7.1114     4.3301     1.7210 H       
  61 H61            7.5798     3.2400     3.0478 H       
  62 H62            8.8901     5.2372     3.0323 H       
  63 H63            0.9893     2.6137     2.0964 H       
  64 H64            0.5645     3.6702     0.6807 H       
  65 H65           -1.4303     2.3984     0.3229 H       
  66 H66           -1.0100     1.3393     1.7380 H       
  67 H67           -4.1340    -4.2098    -1.7837 H       
  68 H68           -4.3675    -4.5305    -3.5189 H       
  69 H69           -2.7319    -4.5741    -2.8179 H       
@<TRIPOS>BOND
   1    1    2 ar
   2    1    6 ar
   3    1   37 1
   4    2    3 ar
   5    2   20 1
   6    3    4 ar
   7    3   39 1
   8    4    5 ar
   9    4   40 1
  10    5    6 ar
  11    5    9 1
  12    6   36 1
  13    7    8 1
  14    7   10 1
  15    7   41 1
  16    7   42 1
  17    8    9 2
  18    8   13 1
  19    9   43 1
  20   10   11 1
  21   10   31 1
  22   10   33 1
  23   11   12 1
  24   11   44 1
  25   11   45 1
  26   12   13 1
  27   12   27 1
  28   13   26 2
  29   14   15 ar
  30   14   19 ar
  31   14   27 1
  32   15   16 ar
  33   15   46 1
  34   16   17 ar
  35   16   47 1
  36   17   18 ar
  37   17   30 1
  38   18   19 ar
  39   18   48 1
  40   19   49 1
  41   20   21 1
  42   20   24 1
  43   21   22 2
  44   21   50 1
  45   22   23 1
  46   22   25 1
  47   23   24 2
  48   24   51 1
  49   25   38 1
  50   25   52 1
  51   25   53 1
  52   26   29 1
  53   27   28 1
  54   27   34 1
  55   28   29 1
  56   28   54 1
  57   28   55 1
  58   31   32 1
  59   31   56 1
  60   31   57 1
  61   32   33 1
  62   33   58 1
  63   33   59 1
  64   34   35 1
  65   34   60 1
  66   34   61 1
  67   35   62 1
  68   36   37 1
  69   36   63 1
  70   36   64 1
  71   37   65 1
  72   37   66 1
  73   38   67 1
  74   38   68 1
  75   38   69 1

#	End of record

