#	Name: ASD03320167
#	Creating user name:	WinNT
#	Creation time:	15. 06. 2019 20:36

#	Modifying user name:	WinNT
#	Modification time:	15. 06. 2019 20:36

#	Program:	/corina/corina34_cracker 3.40 0067  02.08.2006

@<TRIPOS>MOLECULE
ASD03320167
  37   39    0    0    0
SMALL
NO_CHARGES


@<TRIPOS>ATOM
   1 C1            -0.0077     1.3440    -0.1945 C.ar    
   2 C2             0.0217    -0.0349     0.0277 C.ar    
   3 C3            -1.1525    -0.7586     0.0436 C.ar    
   4 C4            -2.3656    -0.1239    -0.1603 C.ar    
   5 C5            -2.4070     1.2548    -0.3830 C.ar    
   6 C6            -1.2280     1.9897    -0.3944 C.ar    
   7 C7             1.2505     2.1177    -0.2118 C.2     
   8 O8             1.2236     3.3177    -0.4053 O.2     
   9 N9             2.4283     1.4934    -0.0131 N.am    
  10 C10            3.6273     2.2079    -0.1264 C.ar    
  11 C11           -3.7086     1.9339    -0.6015 C.2     
  12 C12            3.6885     3.5323     0.2864 C.ar    
  13 C13            4.8712     4.2362     0.1743 C.ar    
  14 C14            5.9981     3.6205    -0.3506 C.ar    
  15 C15            5.9378     2.2974    -0.7632 C.ar    
  16 C16            4.7573     1.5905    -0.6464 C.ar    
  17 O17            7.1622     4.3144    -0.4610 O.3     
  18 C18            8.2828     3.6182    -1.0103 C.3     
  19 F19            7.9761     3.1897    -2.3062 F       
  20 F20            9.3888     4.4738    -1.0515 F       
  21 F21            8.5805     2.5094    -0.2107 F       
  22 F22           -3.5118    -0.8390    -0.1443 F       
  23 N23           -3.8838     3.2197    -0.8213 N.2     
  24 N24           -5.2565     3.4521    -0.9745 N.pl3   
  25 C25           -5.9001     2.2725    -0.8410 C.2     
  26 C26           -4.9738     1.3153    -0.6162 C.2     
  27 H27            0.9654    -0.5352     0.1870 H       
  28 H28           -1.1251    -1.8245     0.2154 H       
  29 H29           -1.2553     3.0556    -0.5661 H       
  30 H30            2.4454     0.5492     0.2084 H       
  31 H31            2.8111     4.0118     0.6948 H       
  32 H32            4.9188     5.2663     0.4951 H       
  33 H33            6.8155     1.8188    -1.1717 H       
  34 H34            4.7106     0.5604    -0.9674 H       
  35 H35           -5.6726     4.3112    -1.1467 H       
  36 H36           -6.9673     2.1204    -0.9071 H       
  37 H37           -5.1692     0.2636    -0.4671 H       
@<TRIPOS>BOND
   1    1    2 ar
   2    1    7 1
   3    1    6 ar
   4    2    3 ar
   5    2   27 1
   6    3    4 ar
   7    3   28 1
   8    4    5 ar
   9    4   22 1
  10    5    6 ar
  11    5   11 1
  12    6   29 1
  13    7    8 2
  14    7    9 am
  15    9   10 1
  16    9   30 1
  17   10   12 ar
  18   10   16 ar
  19   11   23 2
  20   11   26 1
  21   12   13 ar
  22   12   31 1
  23   13   14 ar
  24   13   32 1
  25   14   15 ar
  26   14   17 1
  27   15   16 ar
  28   15   33 1
  29   16   34 1
  30   17   18 1
  31   18   19 1
  32   18   20 1
  33   18   21 1
  34   23   24 1
  35   24   25 1
  36   24   35 1
  37   25   26 2
  38   25   36 1
  39   26   37 1

#	End of record

