#	Name: ASD02508361
#	Creating user name:	WinNT
#	Creation time:	15. 06. 2019 20:24

#	Modifying user name:	WinNT
#	Modification time:	15. 06. 2019 20:24

#	Program:	/corina/corina34_cracker 3.40 0067  02.08.2006

@<TRIPOS>MOLECULE
ASD02508361
  49   52    0    0    0
SMALL
NO_CHARGES


@<TRIPOS>ATOM
   1 C1            -0.0180     1.3964    -0.1077 C.2     
   2 C2             0.0030     0.0053     0.1195 C.2     
   3 C3             1.2947    -0.3770     0.1726 C.2     
   4 N4             2.0750     0.7291    -0.0138 N.pl3   
   5 C5             1.2616     1.8136    -0.1852 C.2     
   6 C6             3.4729     0.7481    -0.0267 C.ar    
   7 C7             4.1564     1.6788     0.7484 C.ar    
   8 N8             4.1333    -0.1229    -0.7717 N.ar    
   9 C9             5.4518    -0.1398    -0.8126 C.ar    
  10 C10            6.1952     0.7586    -0.0728 C.ar    
  11 C11            5.5412     1.6860     0.7264 C.ar    
  12 S12            1.8763    -2.0191     0.4373 S.o2    
  13 O13            1.8547    -2.6616    -0.8299 O.2     
  14 O14            3.0492    -1.9062     1.2316 O.2     
  15 N15            0.7504    -2.7929     1.3733 N.am    
  16 C16           -0.5328    -3.0259     0.8728 C.ar    
  17 C17           -0.6976    -3.5141    -0.4182 C.ar    
  18 C18           -1.6427    -2.7755     1.6658 C.ar    
  19 C19           -2.9199    -3.0093     1.1623 C.ar    
  20 C20           -3.0756    -3.4935    -0.1353 C.ar    
  21 C21           -1.9654    -3.7453    -0.9167 C.ar    
  22 C22           -4.1116    -2.7442     2.0052 C.ar    
  23 Cl23           3.2859     2.8161     1.7294 Cl      
  24 N24           -3.9551    -2.2839     3.2394 N.ar    
  25 C25           -4.9871    -2.0352     4.0199 C.ar    
  26 C26           -6.2795    -2.2472     3.5770 C.ar    
  27 C27           -6.4882    -2.7282     2.2920 C.ar    
  28 C28           -5.3862    -2.9753     1.4920 C.ar    
  29 C29            7.7009     0.7287    -0.1283 C.3     
  30 F30            8.1156    -0.2902    -0.9926 F       
  31 F31            8.1748     1.9590    -0.5963 F       
  32 F32            8.2101     0.4896     1.1527 F       
  33 C33           -7.4503    -1.9593     4.4810 C.3     
  34 F34           -6.9836    -1.4885     5.7129 F       
  35 F35           -8.2679    -0.9897     3.8906 F       
  36 F36           -8.1864    -3.1325     4.6787 F       
  37 H37           -0.8983     2.0143    -0.2064 H       
  38 H38           -0.8582    -0.6369     0.2307 H       
  39 H39            1.5875     2.8293    -0.3539 H       
  40 H40            5.9565    -0.8661    -1.4324 H       
  41 H41            6.0992     2.3994     1.3146 H       
  42 H42            0.9820    -3.0844     2.2690 H       
  43 H43            0.1675    -3.7130    -1.0333 H       
  44 H44           -1.5169    -2.4007     2.6708 H       
  45 H45           -4.0649    -3.6761    -0.5282 H       
  46 H46           -2.0884    -4.1201    -1.9221 H       
  47 H47           -4.8212    -1.6609     5.0193 H       
  48 H48           -7.4883    -2.9020     1.9232 H       
  49 H49           -5.5121    -3.3500     0.4869 H       
@<TRIPOS>BOND
   1    1    2 1
   2    1    5 2
   3    1   37 1
   4    2    3 2
   5    2   38 1
   6    3    4 1
   7    3   12 1
   8    4    5 1
   9    4    6 1
  10    5   39 1
  11    6    7 ar
  12    6    8 ar
  13    7   23 1
  14    7   11 ar
  15    8    9 ar
  16    9   10 ar
  17    9   40 1
  18   10   11 ar
  19   10   29 1
  20   11   41 1
  21   12   13 2
  22   12   14 2
  23   12   15 am
  24   15   16 1
  25   15   42 1
  26   16   17 ar
  27   16   18 ar
  28   17   21 ar
  29   17   43 1
  30   18   19 ar
  31   18   44 1
  32   19   20 ar
  33   19   22 1
  34   20   21 ar
  35   20   45 1
  36   21   46 1
  37   22   24 ar
  38   22   28 ar
  39   24   25 ar
  40   25   26 ar
  41   25   47 1
  42   26   27 ar
  43   26   33 1
  44   27   28 ar
  45   27   48 1
  46   28   49 1
  47   29   30 1
  48   29   31 1
  49   29   32 1
  50   33   34 1
  51   33   35 1
  52   33   36 1

#	End of record

