#	Name: ASD01914184
#	Creating user name:	WinNT
#	Creation time:	15. 06. 2019 20:03

#	Modifying user name:	WinNT
#	Modification time:	15. 06. 2019 20:03

#	Program:	/corina/corina34_cracker 3.40 0067  02.08.2006

@<TRIPOS>MOLECULE
ASD01914184
  48   51    0    0    0
SMALL
NO_CHARGES


@<TRIPOS>ATOM
   1 C1            -0.0164     1.3562     0.0095 C.2     
   2 N2             0.0021    -0.0041     0.0020 N.pl3   
   3 C3             1.3256    -0.3967    -0.0127 C.ar    
   4 C4             2.0815     0.7880    -0.0136 C.ar    
   5 N5             1.1992     1.8201     0.0004 N.2     
   6 C6             3.4765     0.7132    -0.0269 C.ar    
   7 C7             4.0928    -0.5063    -0.0389 C.ar    
   8 C8             3.3470    -1.6761    -0.0381 C.ar    
   9 C9             1.9690    -1.6264    -0.0251 C.ar    
  10 C10           -1.2632     2.2025     0.0202 C.3     
  11 C11           -1.6781     2.4811     1.4663 C.3     
  12 C12           -2.8960     3.3078     1.4768 C.1     
  13 C13           -3.8673     3.9671     1.4852 C.1     
  14 C14           -5.0521     4.7713     1.4953 C.ar    
  15 C15           -5.6190     5.1536     2.7118 C.ar    
  16 C16           -6.7637     5.9306     2.7048 C.ar    
  17 C17           -7.3060     6.3012     1.4819 C.ar    
  18 C18           -6.6926     5.8873     0.3139 C.ar    
  19 N19           -5.5999     5.1522     0.3471 N.ar    
  20 C20           -1.1659    -0.8883     0.0092 C.3     
  21 C21           -1.5872    -1.1884    -1.4308 C.3     
  22 C22           -2.7887    -2.0980    -1.4234 C.ar    
  23 C23           -4.0623    -1.5608    -1.4076 C.ar    
  24 C24           -5.1644    -2.3951    -1.4008 C.ar    
  25 C25           -4.9929    -3.7668    -1.4103 C.ar    
  26 C26           -3.7194    -4.3041    -1.4271 C.ar    
  27 C27           -2.6173    -3.4696    -1.4382 C.ar    
  28 H28            4.0668     1.6176    -0.0280 H       
  29 H29            5.1714    -0.5600    -0.0496 H       
  30 H30            3.8491    -2.6323    -0.0477 H       
  31 H31            1.3931    -2.5401    -0.0242 H       
  32 H32           -1.0665     3.1457    -0.4895 H       
  33 H33           -2.0662     1.6730    -0.4925 H       
  34 H34           -1.8748     1.5379     1.9760 H       
  35 H35           -0.8751     3.0106     1.9791 H       
  36 H36           -5.1708     4.8469     3.6453 H       
  37 H37           -7.2253     6.2416     3.6304 H       
  38 H38           -8.1991     6.9072     1.4432 H       
  39 H39           -7.1128     6.1741    -0.6387 H       
  40 H40           -0.9133    -1.8200     0.5155 H       
  41 H41           -1.9875    -0.4008     0.5340 H       
  42 H42           -1.8399    -0.2568    -1.9371 H       
  43 H43           -0.7656    -1.6759    -1.9556 H       
  44 H44           -4.1962    -0.4891    -1.4002 H       
  45 H45           -6.1594    -1.9754    -1.3877 H       
  46 H46           -5.8540    -4.4187    -1.4043 H       
  47 H47           -3.5854    -5.3757    -1.4342 H       
  48 H48           -1.6224    -3.8894    -1.4550 H       
@<TRIPOS>BOND
   1    1    2 1
   2    1    5 2
   3    1   10 1
   4    2    3 1
   5    2   20 1
   6    3    4 ar
   7    3    9 ar
   8    4    5 1
   9    4    6 ar
  10    6    7 ar
  11    6   28 1
  12    7    8 ar
  13    7   29 1
  14    8    9 ar
  15    8   30 1
  16    9   31 1
  17   10   11 1
  18   10   32 1
  19   10   33 1
  20   11   12 1
  21   11   34 1
  22   11   35 1
  23   12   13 3
  24   13   14 1
  25   14   15 ar
  26   14   19 ar
  27   15   16 ar
  28   15   36 1
  29   16   17 ar
  30   16   37 1
  31   17   18 ar
  32   17   38 1
  33   18   19 ar
  34   18   39 1
  35   20   21 1
  36   20   40 1
  37   20   41 1
  38   21   22 1
  39   21   42 1
  40   21   43 1
  41   22   23 ar
  42   22   27 ar
  43   23   24 ar
  44   23   44 1
  45   24   25 ar
  46   24   45 1
  47   25   26 ar
  48   25   46 1
  49   26   27 ar
  50   26   47 1
  51   27   48 1

#	End of record

