#	Name: ASD01200035
#	Creating user name:	WinNT
#	Creation time:	15. 06. 2019 19:08

#	Modifying user name:	WinNT
#	Modification time:	15. 06. 2019 19:08

#	Program:	/corina/corina34_cracker 3.40 0067  02.08.2006

@<TRIPOS>MOLECULE
ASD01200035
  27   28    0    0    0
SMALL
NO_CHARGES


@<TRIPOS>ATOM
   1 C1             0.0575     1.2394    -0.0276 C.ar    
   2 C2            -0.0972    -0.0832     0.3592 C.ar    
   3 C3            -1.3522    -0.6553     0.4055 C.ar    
   4 C4            -2.4714     0.0927     0.0635 C.ar    
   5 C5            -2.3189     1.4320    -0.3286 C.ar    
   6 C6            -1.0425     1.9992    -0.3653 C.ar    
   7 C7            -3.4985     2.2364    -0.6946 C.2     
   8 N8            -3.3637     3.5531    -0.9490 N.am    
   9 C9            -4.4753     4.3111    -1.2939 C.2     
  10 Cl10           1.6431     1.9441    -0.0800 Cl      
  11 N11           -3.7356    -0.4819     0.1086 N.pl3   
  12 N12           -4.4559     5.5803    -1.5576 N.2     
  13 C13           -5.6084     6.1435    -1.8690 C.2     
  14 C14           -6.6510     5.3107    -1.8685 C.2     
  15 S15           -6.0672     3.7048    -1.4396 S.3     
  16 O16           -4.5934     1.7121    -0.7669 O.2     
  17 C17           -5.7364     7.6085    -2.1981 C.3     
  18 H18            0.7699    -0.6694     0.6255 H       
  19 H19           -1.4642    -1.6861     0.7078 H       
  20 H20           -0.9167     3.0290    -0.6654 H       
  21 H21           -2.4904     3.9713    -0.8913 H       
  22 H22           -3.8329    -1.4452     0.0506 H       
  23 H23           -4.5210     0.0804     0.1982 H       
  24 H24           -7.6735     5.5743    -2.0952 H       
  25 H25           -5.6013     7.7533    -3.2700 H       
  26 H26           -6.7252     7.9616    -1.9056 H       
  27 H27           -4.9752     8.1703    -1.6569 H       
@<TRIPOS>BOND
   1    1    2 ar
   2    1   10 1
   3    1    6 ar
   4    2    3 ar
   5    2   18 1
   6    3    4 ar
   7    3   19 1
   8    4    5 ar
   9    4   11 1
  10    5    6 ar
  11    5    7 1
  12    6   20 1
  13    7    8 am
  14    7   16 2
  15    8    9 1
  16    8   21 1
  17    9   12 2
  18    9   15 1
  19   11   22 1
  20   11   23 1
  21   12   13 1
  22   13   14 2
  23   13   17 1
  24   14   15 1
  25   14   24 1
  26   17   25 1
  27   17   26 1
  28   17   27 1

#	End of record

