#	Name: ASD01911576
#	Creating user name:	WinNT
#	Creation time:	15. 06. 2019 19:58

#	Modifying user name:	WinNT
#	Modification time:	15. 06. 2019 19:58

#	Program:	/corina/corina34_cracker 3.40 0067  02.08.2006

@<TRIPOS>MOLECULE
ASD01911576
  38   40    0    0    0
SMALL
NO_CHARGES


@<TRIPOS>ATOM
   1 N1             0.0337     1.1489    -0.6953 N.am    
   2 C2             0.0021    -0.0041     0.0020 C.2     
   3 C3            -1.2508    -0.7543     0.1205 C.2     
   4 C4            -1.3862    -2.1135     0.0310 C.2     
   5 S5            -2.8471    -0.0659     0.4110 S.3     
   6 C6            -3.5481    -1.6813     0.3766 C.2     
   7 N7            -2.6015    -2.5625     0.1688 N.2     
   8 C8            -4.9365    -1.9845     0.5531 C.1     
   9 C9            -6.0747    -2.2331     0.6978 C.1     
  10 C10           -7.4631    -2.5364     0.8742 C.ar    
  11 C11           -7.9041    -3.8624     0.8264 C.ar    
  12 C12           -9.2436    -4.1465     0.9979 C.ar    
  13 C13          -10.1496    -3.1216     1.2168 C.ar    
  14 C14           -9.7197    -1.8075     1.2652 C.ar    
  15 C15           -8.3833    -1.5086     1.1009 C.ar    
  16 O16            1.0143    -0.4220     0.5333 O.2     
  17 C17           -1.1464     1.6043    -1.4427 C.3     
  18 C18            1.2470     1.9772    -0.7176 C.3     
  19 C19            0.8787     3.4026    -0.2942 C.3     
  20 C20           -0.2517     3.9196    -1.1869 C.3     
  21 C21           -1.4825     3.0348    -1.0096 C.3     
  22 Cl22          -9.7945    -5.7917     0.9385 Cl      
  23 O23           -0.5759     5.2610    -0.8158 O.3     
  24 H24           -0.5446    -2.7679    -0.1420 H       
  25 H25           -7.1985    -4.6619     0.6555 H       
  26 H26          -11.1969    -3.3496     1.3499 H       
  27 H27          -10.4319    -1.0138     1.4362 H       
  28 H28           -8.0496    -0.4821     1.1389 H       
  29 H29           -0.9314     1.5870    -2.5111 H       
  30 H30           -1.9906     0.9494    -1.2271 H       
  31 H31            1.9815     1.5682    -0.0237 H       
  32 H32            1.6616     1.9909    -1.7256 H       
  33 H33            0.5495     3.4000     0.7448 H       
  34 H34            1.7497     4.0497    -0.3987 H       
  35 H35            0.0695     3.8987    -2.2283 H       
  36 H36           -2.2961     3.4153    -1.6270 H       
  37 H37           -1.7864     3.0399     0.0372 H       
  38 H38           -1.2864     5.6537    -1.3412 H       
@<TRIPOS>BOND
   1    1    2 am
   2    1   18 1
   3    1   17 1
   4    2    3 1
   5    2   16 2
   6    3    4 2
   7    3    5 1
   8    4    7 1
   9    4   24 1
  10    5    6 1
  11    6    7 2
  12    6    8 1
  13    8    9 3
  14    9   10 1
  15   10   11 ar
  16   10   15 ar
  17   11   12 ar
  18   11   25 1
  19   12   13 ar
  20   12   22 1
  21   13   14 ar
  22   13   26 1
  23   14   15 ar
  24   14   27 1
  25   15   28 1
  26   17   21 1
  27   17   29 1
  28   17   30 1
  29   18   19 1
  30   18   31 1
  31   18   32 1
  32   19   20 1
  33   19   33 1
  34   19   34 1
  35   20   21 1
  36   20   23 1
  37   20   35 1
  38   21   36 1
  39   21   37 1
  40   23   38 1

#	End of record

