#	Name: ASD04550070
#	Creating user name:	WinNT
#	Creation time:	15. 06. 2019 20:49

#	Modifying user name:	WinNT
#	Modification time:	15. 06. 2019 20:49

#	Program:	/corina/corina34_cracker 3.40 0067  02.08.2006

@<TRIPOS>MOLECULE
ASD04550070
  38   38    0    0    0
SMALL
NO_CHARGES


@<TRIPOS>ATOM
   1 C1            -0.0167     1.3831     0.0096 C.ar    
   2 C2             0.0021    -0.0041     0.0020 C.ar    
   3 C3             1.2141    -0.6789    -0.0132 C.ar    
   4 C4             2.3989     0.0314    -0.0207 C.ar    
   5 C5             2.3774     1.4139    -0.0126 C.ar    
   6 C6             1.1708     2.0889     0.0021 C.ar    
   7 C7             3.6714     2.1863    -0.0198 C.3     
   8 C8             3.7284     3.0742    -1.2645 C.3     
   9 O9            -1.1648    -0.7006     0.0099 O.3     
  10 S10           -1.7101    -1.0105    -1.3769 S.o2    
  11 O11           -3.0259    -1.4906    -1.1368 O.2     
  12 O12           -1.4892     0.1834    -2.1151 O.2     
  13 C13            3.7497     3.0468     1.2149 C.2     
  14 O14            2.8439     3.0340     2.0214 O.2     
  15 N15            4.8262     3.8305     1.4230 N.am    
  16 C16            4.9023     4.6669     2.6234 C.3     
  17 C17            5.4609     3.8425     3.7849 C.3     
  18 C18            5.8221     5.8600     2.3561 C.3     
  19 C19           -0.6479    -2.3457    -1.9931 C.3     
  20 F20           -0.7408    -3.4482    -1.1370 F       
  21 F21           -1.0619    -2.7160    -3.2771 F       
  22 F22            0.6781    -1.9024    -2.0404 F       
  23 H23           -0.9590     1.9108     0.0170 H       
  24 H24            1.2314    -1.7588    -0.0188 H       
  25 H25            3.3426    -0.4935    -0.0325 H       
  26 H26            1.1567     3.1688     0.0084 H       
  27 H27            4.5100     1.4902    -0.0313 H       
  28 H28            2.8898     3.7703    -1.2530 H       
  29 H29            4.6643     3.6329    -1.2698 H       
  30 H30            3.6718     2.4518    -2.1576 H       
  31 H31            5.5506     3.8407     0.7781 H       
  32 H32            3.9057     5.0266     2.8793 H       
  33 H33            6.4575     3.4828     3.5290 H       
  34 H34            5.5175     4.4648     4.6780 H       
  35 H35            4.8056     2.9925     3.9753 H       
  36 H36            5.4242     6.4473     1.5286 H       
  37 H37            5.8787     6.4823     3.2492 H       
  38 H38            6.8187     5.5003     2.1002 H       
@<TRIPOS>BOND
   1    1    2 ar
   2    1    6 ar
   3    1   23 1
   4    2    3 ar
   5    2    9 1
   6    3    4 ar
   7    3   24 1
   8    4    5 ar
   9    4   25 1
  10    5    6 ar
  11    5    7 1
  12    6   26 1
  13    7    8 1
  14    7   13 1
  15    7   27 1
  16    8   28 1
  17    8   29 1
  18    8   30 1
  19    9   10 1
  20   10   11 2
  21   10   12 2
  22   10   19 1
  23   13   14 2
  24   13   15 am
  25   15   16 1
  26   15   31 1
  27   16   17 1
  28   16   18 1
  29   16   32 1
  30   17   33 1
  31   17   34 1
  32   17   35 1
  33   18   36 1
  34   18   37 1
  35   18   38 1
  36   19   20 1
  37   19   21 1
  38   19   22 1

#	End of record

