#	Name: ASD03092749
#	Creating user name:	WinNT
#	Creation time:	15. 06. 2019 20:33

#	Modifying user name:	WinNT
#	Modification time:	15. 06. 2019 20:33

#	Program:	/corina/corina34_cracker 3.40 0067  02.08.2006

@<TRIPOS>MOLECULE
ASD03092749
  57   60    0    0    0
SMALL
NO_CHARGES


@<TRIPOS>ATOM
   1 C1             2.8560    -3.8781     6.9463 C.3     
   2 O2             3.7722    -3.0373     7.6504 O.3     
   3 C3             3.9518    -1.7799     7.1671 C.ar    
   4 C4             3.2567    -1.3633     6.0432 C.ar    
   5 C5             3.4422    -0.0777     5.5524 C.ar    
   6 N6             2.7430     0.3463     4.4198 N.pl3   
   7 C7             2.4152     1.6975     4.2653 C.2     
   8 C8             1.8116     2.2751     3.1351 C.2     
   9 C9             1.6601     3.5969     3.3744 C.2     
  10 C10            1.0549     4.6065     2.4335 C.3     
  11 C11           -0.4454     4.5888     2.5750 C.2     
  12 O12           -0.9713     3.8309     3.3623 O.2     
  13 N13           -1.2027     5.4151     1.8266 N.am    
  14 C14           -2.6611     5.3979     1.9641 C.3     
  15 C15           -3.2756     6.4230     1.0089 C.3     
  16 C16           -4.1820     5.8957    -0.1053 C.3     
  17 C17           -4.7879     6.6418     1.0851 C.3     
  18 N18            2.1510     3.8519     4.6154 N.pl3   
  19 N19            2.6131     2.6437     5.1530 N.2     
  20 C20            2.1848     5.0992     5.2461 C.ar    
  21 C21            3.3131     5.5131     5.9512 C.ar    
  22 C22            3.3069     6.7519     6.5594 C.ar    
  23 N23            2.2513     7.5393     6.4791 N.ar    
  24 C24            1.1643     7.1833     5.8210 C.ar    
  25 C25           -0.0115     8.1240     5.7623 C.3     
  26 C26            1.0930     5.9631     5.1810 C.ar    
  27 C27            4.3241     0.7865     6.1897 C.ar    
  28 C28            5.0151     0.3670     7.3099 C.ar    
  29 C29            4.8276    -0.9103     7.8027 C.ar    
  30 C30            5.9710     1.3061     7.9993 C.3     
  31 F31            5.2862     2.0314     8.9803 F       
  32 F32            6.9993     0.5693     8.5968 F       
  33 F33            6.5150     2.1896     7.0609 F       
  34 H34            3.1957    -4.0052     5.9184 H       
  35 H35            2.8063    -4.8510     7.4354 H       
  36 H36            1.8671    -3.4196     6.9481 H       
  37 H37            2.5721    -2.0373     5.5497 H       
  38 H38            2.4847    -0.2962     3.7406 H       
  39 H39            1.5205     1.7549     2.2345 H       
  40 H40            1.4309     5.6004     2.6761 H       
  41 H41            1.3261     4.3558     1.4080 H       
  42 H42           -0.7820     6.0213     1.1969 H       
  43 H43           -3.0372     4.4040     1.7215 H       
  44 H44           -2.9323     5.6487     2.9896 H       
  45 H45           -2.6525     7.2886     0.7839 H       
  46 H46           -4.1553     6.4144    -1.0636 H       
  47 H47           -4.3406     4.8186    -0.1577 H       
  48 H48           -5.3451     6.0556     1.8158 H       
  49 H49           -5.1598     7.6514     0.9100 H       
  50 H50            4.1804     4.8732     6.0210 H       
  51 H51            4.1769     7.0808     7.1083 H       
  52 H52            0.0853     8.7728     4.8918 H       
  53 H53           -0.9339     7.5483     5.6856 H       
  54 H54           -0.0364     8.7313     6.6671 H       
  55 H55            0.2021     5.6797     4.6403 H       
  56 H56            4.4697     1.7866     5.8088 H       
  57 H57            5.3662    -1.2339     8.6810 H       
@<TRIPOS>BOND
   1    1    2 1
   2    1   34 1
   3    1   35 1
   4    1   36 1
   5    2    3 1
   6    3   29 ar
   7    3    4 ar
   8    4    5 ar
   9    4   37 1
  10    5    6 1
  11    5   27 ar
  12    6    7 1
  13    6   38 1
  14    7   19 2
  15    7    8 1
  16    8    9 2
  17    8   39 1
  18    9   10 1
  19    9   18 1
  20   10   11 1
  21   10   40 1
  22   10   41 1
  23   11   12 2
  24   11   13 am
  25   13   14 1
  26   13   42 1
  27   14   15 1
  28   14   43 1
  29   14   44 1
  30   15   17 1
  31   15   16 1
  32   15   45 1
  33   16   17 1
  34   16   46 1
  35   16   47 1
  36   17   48 1
  37   17   49 1
  38   18   19 1
  39   18   20 1
  40   20   26 ar
  41   20   21 ar
  42   21   22 ar
  43   21   50 1
  44   22   23 ar
  45   22   51 1
  46   23   24 ar
  47   24   25 1
  48   24   26 ar
  49   25   52 1
  50   25   53 1
  51   25   54 1
  52   26   55 1
  53   27   28 ar
  54   27   56 1
  55   28   29 ar
  56   28   30 1
  57   29   57 1
  58   30   31 1
  59   30   32 1
  60   30   33 1

#	End of record

