#	Name: ASD00310316
#	Creating user name:	WinNT
#	Creation time:	15. 06. 2019 18:34

#	Modifying user name:	WinNT
#	Modification time:	15. 06. 2019 18:34

#	Program:	/corina/corina34_cracker 3.40 0067  02.08.2006

@<TRIPOS>MOLECULE
ASD00310316
  27   28    0    0    0
SMALL
NO_CHARGES


@<TRIPOS>ATOM
   1 N1            -0.0181     1.4814     0.0102 N.3     
   2 C2             0.0021    -0.0041     0.0020 C.3     
   3 C3             1.1693    -0.3824     0.9388 C.3     
   4 C4             2.1001     0.8478     0.9366 C.3     
   5 C5             1.4169     1.8659    -0.0014 C.3     
   6 C6            -0.7130     2.0050    -1.1734 C.3     
   7 C7            -1.2976    -0.5503     0.5346 C.ar    
   8 C8            -1.8623    -1.6735    -0.0402 C.ar    
   9 C9            -3.0541    -2.1751     0.4482 C.ar    
  10 C10           -3.6816    -1.5529     1.5124 C.ar    
  11 C11           -3.1162    -0.4290     2.0873 C.ar    
  12 C12           -1.9217     0.0687     1.6015 C.ar    
  13 Br13          -5.3124    -2.2383     2.1807 Br      
  14 H14            0.1874    -0.3762    -1.0056 H       
  15 H15            0.7993    -0.5754     1.9458 H       
  16 H16            1.6956    -1.2560     0.5542 H       
  17 H17            2.1869     1.2587     1.9424 H       
  18 H18            3.0832     0.5780     0.5508 H       
  19 H19            1.8236     1.7864    -1.0096 H       
  20 H20            1.5421     2.8788     0.3812 H       
  21 H21           -1.7406     1.6415    -1.1818 H       
  22 H22           -0.7132     3.0945    -1.1422 H       
  23 H23           -0.2009     1.6673    -2.0744 H       
  24 H24           -1.3724    -2.1590    -0.8713 H       
  25 H25           -3.4954    -3.0524    -0.0011 H       
  26 H26           -3.6060     0.0573     2.9179 H       
  27 H27           -1.4780     0.9438     2.0530 H       
@<TRIPOS>BOND
   1    1    2 1
   2    1    5 1
   3    1    6 1
   4    2    3 1
   5    2    7 1
   6    2   14 1
   7    3    4 1
   8    3   15 1
   9    3   16 1
  10    4    5 1
  11    4   17 1
  12    4   18 1
  13    5   19 1
  14    5   20 1
  15    6   21 1
  16    6   22 1
  17    6   23 1
  18    7    8 ar
  19    7   12 ar
  20    8    9 ar
  21    8   24 1
  22    9   10 ar
  23    9   25 1
  24   10   11 ar
  25   10   13 1
  26   11   12 ar
  27   11   26 1
  28   12   27 1

#	End of record

