#	Name: ASD03330649
#	Creating user name:	WinNT
#	Creation time:	15. 06. 2019 20:37

#	Modifying user name:	WinNT
#	Modification time:	15. 06. 2019 20:37

#	Program:	/corina/corina34_cracker 3.40 0067  02.08.2006

@<TRIPOS>MOLECULE
ASD03330649
  63   65    0    0    0
SMALL
NO_CHARGES


@<TRIPOS>ATOM
   1 C1             0.1976     2.1582    -1.0429 C.2     
   2 N2             0.2984     0.9200    -1.5810 N.pl3   
   3 C3             1.4538     2.5445    -0.6845 C.2     
   4 N4             2.3025     1.5495    -1.0228 N.2     
   5 C5             1.6174     0.5717    -1.5674 C.2     
   6 C6             2.1812    -0.6961    -2.0813 C.ar    
   7 C7             1.8212     3.8195    -0.0435 C.2     
   8 O8             0.9619     4.6412     0.2124 O.2     
   9 C9             3.4746     5.3427     0.8963 C.3     
  10 N10            3.1094     4.0751     0.2591 N.am    
  11 C11            3.2956     5.2222     2.4110 C.3     
  12 C12            4.1290     4.0494     2.9315 C.3     
  13 C13            3.7593     6.5157     3.0839 C.3     
  14 C14            1.8193     4.9811     2.7325 C.3     
  15 C15            4.9133     5.6654     0.5847 C.2     
  16 N16            5.3605     6.9315     0.7016 N.am    
  17 O17            5.6687     4.7859     0.2287 O.2     
  18 C18            6.7293     7.2649     0.2998 C.3     
  19 C19           -0.8220     0.1116    -2.0700 C.3     
  20 C20           -1.7204     0.9805    -2.9556 C.3     
  21 C21           -2.7590     1.6925    -2.0947 C.3     
  22 N22           -2.2103     2.0273    -0.7789 N.3     
  23 C23           -1.0739     2.9531    -0.8942 C.3     
  24 C24           -3.2503     2.5775     0.1007 C.3     
  25 C25            3.4741    -0.7267    -2.6040 C.ar    
  26 C26            3.9941    -1.9123    -3.0817 C.ar    
  27 C27            3.2360    -3.0686    -3.0434 C.ar    
  28 C28            1.9527    -3.0448    -2.5265 C.ar    
  29 C29            1.4239    -1.8673    -2.0397 C.ar    
  30 C30            5.3907    -1.9471    -3.6468 C.3     
  31 F31            6.3010    -2.2311    -2.6232 F       
  32 F32            5.4711    -2.9385    -4.6307 F       
  33 F33            5.6966    -0.7041    -4.2113 F       
  34 H34            2.8333     6.1381     0.5168 H       
  35 H35            3.7948     3.4197     0.0550 H       
  36 H36            5.1807     4.2212     2.7024 H       
  37 H37            4.0014     3.9636     4.0106 H       
  38 H38            3.7986     3.1279     2.4521 H       
  39 H39            3.1809     7.3544     2.6964 H       
  40 H40            3.6106     6.4385     4.1609 H       
  41 H41            4.8168     6.6757     2.8737 H       
  42 H42            1.4889     4.0596     2.2531 H       
  43 H43            1.6917     4.8953     3.8116 H       
  44 H44            1.2255     5.8166     2.3617 H       
  45 H45            4.7760     7.6219     1.0518 H       
  46 H46            6.9081     8.3272     0.4658 H       
  47 H47            7.4341     6.6809     0.8916 H       
  48 H48            6.8640     7.0345    -0.7571 H       
  49 H49           -0.4395    -0.7274    -2.6512 H       
  50 H50           -1.3977    -0.2628    -1.2235 H       
  51 H51           -1.1111     1.7203    -3.4748 H       
  52 H52           -2.2262     0.3506    -3.6874 H       
  53 H53           -3.0719     2.6085    -2.5956 H       
  54 H54           -3.6243     1.0421    -1.9667 H       
  55 H55           -1.0147     3.5708     0.0019 H       
  56 H56           -1.2098     3.5897    -1.7685 H       
  57 H57           -4.0437     1.8413     0.2299 H       
  58 H58           -2.8158     2.8175     1.0711 H       
  59 H59           -3.6631     3.4818    -0.3463 H       
  60 H60            4.0667     0.1757    -2.6352 H       
  61 H61            3.6474    -3.9940    -3.4188 H       
  62 H62            1.3657    -3.9509    -2.4996 H       
  63 H63            0.4222    -1.8500    -1.6362 H       
@<TRIPOS>BOND
   1    1    2 1
   2    1    3 2
   3    1   23 1
   4    2   19 1
   5    2    5 1
   6    3    4 1
   7    3    7 1
   8    4    5 2
   9    5    6 1
  10    6   25 ar
  11    6   29 ar
  12    7    8 2
  13    7   10 am
  14    9   10 1
  15    9   11 1
  16    9   15 1
  17    9   34 1
  18   10   35 1
  19   11   12 1
  20   11   13 1
  21   11   14 1
  22   12   36 1
  23   12   37 1
  24   12   38 1
  25   13   39 1
  26   13   40 1
  27   13   41 1
  28   14   42 1
  29   14   43 1
  30   14   44 1
  31   15   16 am
  32   15   17 2
  33   16   18 1
  34   16   45 1
  35   18   46 1
  36   18   47 1
  37   18   48 1
  38   19   20 1
  39   19   49 1
  40   19   50 1
  41   20   21 1
  42   20   51 1
  43   20   52 1
  44   21   22 1
  45   21   53 1
  46   21   54 1
  47   22   23 1
  48   22   24 1
  49   23   55 1
  50   23   56 1
  51   24   57 1
  52   24   58 1
  53   24   59 1
  54   25   26 ar
  55   25   60 1
  56   26   27 ar
  57   26   30 1
  58   27   28 ar
  59   27   61 1
  60   28   29 ar
  61   28   62 1
  62   29   63 1
  63   30   31 1
  64   30   32 1
  65   30   33 1

#	End of record

