#	Name: ASD01814236
#	Creating user name:	WinNT
#	Creation time:	15. 06. 2019 19:31

#	Modifying user name:	WinNT
#	Modification time:	15. 06. 2019 19:31

#	Program:	/corina/corina34_cracker 3.40 0067  02.08.2006

@<TRIPOS>MOLECULE
ASD01814236
  41   44    0    0    0
SMALL
NO_CHARGES


@<TRIPOS>ATOM
   1 C1             6.7037     1.7192    -0.9380 C.ar    
   2 C2             6.8205     0.3368    -0.9548 C.ar    
   3 C3             5.7402    -0.4651    -0.6498 C.ar    
   4 C4             4.5150     0.1139    -0.3205 C.ar    
   5 C5             4.4013     1.5140    -0.3048 C.ar    
   6 C6             5.5027     2.3115    -0.6154 C.ar    
   7 N7             3.4270    -0.6757    -0.0142 N.pl3   
   8 C8             2.2304    -0.1688     0.3077 C.2     
   9 C9             1.9966     1.1909     0.3567 C.2     
  10 C10            3.1000     2.1137     0.0452 C.2     
  11 C11            0.6681     1.7083     0.7136 C.2     
  12 O12            0.4523     3.0382     0.7581 O.3     
  13 O13           -0.2362     0.9369     0.9687 O.2     
  14 O14            2.9450     3.3219     0.0747 O.2     
  15 C15            3.5871    -2.1316    -0.0425 C.3     
  16 C16            3.4415    -2.6328    -1.4807 C.3     
  17 C17            3.6674    -4.1578    -1.5558 C.3     
  18 C18            2.7109    -4.6479    -2.6217 C.ar    
  19 C19            1.7434    -3.6894    -2.8578 C.ar    
  20 C20            1.9836    -2.4896    -1.9668 C.3     
  21 C21            2.6886    -5.8386    -3.3288 C.ar    
  22 C22            1.7035    -6.0705    -4.2685 C.ar    
  23 C23            0.7358    -5.1118    -4.5047 C.ar    
  24 C24            0.7562    -3.9240    -3.8004 C.ar    
  25 F25            5.8689    -1.8098    -0.6707 F       
  26 H26            7.5596     2.3338    -1.1747 H       
  27 H27            7.7672    -0.1163    -1.2095 H       
  28 H28            5.4144     3.3878    -0.6028 H       
  29 H29            1.4209    -0.8462     0.5362 H       
  30 H30           -0.4377     3.3308     0.9977 H       
  31 H31            4.5744    -2.3960     0.3363 H       
  32 H32            2.8226    -2.5934     0.5823 H       
  33 H33            4.1278    -2.1064    -2.1441 H       
  34 H34            4.6965    -4.3741    -1.8428 H       
  35 H35            3.4357    -4.6221    -0.5973 H       
  36 H36            1.2990    -2.5052    -1.1187 H       
  37 H37            1.8630    -1.5668    -2.5343 H       
  38 H38            3.4442    -6.5880    -3.1449 H       
  39 H39            1.6894    -6.9998    -4.8187 H       
  40 H40           -0.0351    -5.2914    -5.2394 H       
  41 H41           -0.0001    -3.1755    -3.9854 H       
@<TRIPOS>BOND
   1    1    2 ar
   2    1    6 ar
   3    1   26 1
   4    2    3 ar
   5    2   27 1
   6    3    4 ar
   7    3   25 1
   8    4    5 ar
   9    4    7 1
  10    5    6 ar
  11    5   10 1
  12    6   28 1
  13    7    8 1
  14    7   15 1
  15    8    9 2
  16    8   29 1
  17    9   10 1
  18    9   11 1
  19   10   14 2
  20   11   12 1
  21   11   13 2
  22   12   30 1
  23   15   16 1
  24   15   31 1
  25   15   32 1
  26   16   17 1
  27   16   20 1
  28   16   33 1
  29   17   18 1
  30   17   34 1
  31   17   35 1
  32   18   19 ar
  33   18   21 ar
  34   19   20 1
  35   19   24 ar
  36   20   36 1
  37   20   37 1
  38   21   22 ar
  39   21   38 1
  40   22   23 ar
  41   22   39 1
  42   23   24 ar
  43   23   40 1
  44   24   41 1

#	End of record

