#	Name: ASD03082354
#	Creating user name:	WinNT
#	Creation time:	15. 06. 2019 20:27

#	Modifying user name:	WinNT
#	Modification time:	15. 06. 2019 20:27

#	Program:	/corina/corina34_cracker 3.40 0067  02.08.2006

@<TRIPOS>MOLECULE
ASD03082354
  39   41    0    0    0
SMALL
NO_CHARGES


@<TRIPOS>ATOM
   1 C1            -3.4950    -0.5273    -0.0396 C.ar    
   2 C2            -2.3306    -0.0178     0.5199 C.ar    
   3 C3            -2.3614     1.1919     1.2021 C.ar    
   4 C4            -3.5493     1.8864     1.3231 C.ar    
   5 C5            -4.7099     1.3781     0.7656 C.ar    
   6 C6            -4.6826     0.1710     0.0835 C.ar    
   7 F7            -5.8163    -0.3233    -0.4603 F       
   8 F8            -5.8706     2.0588     0.8861 F       
   9 N9            -1.1288    -0.7219     0.3973 N.pl3   
  10 C10           -1.1433    -2.1161     0.2850 C.2     
  11 C11           -0.0267    -2.9353     0.0449 C.2     
  12 N12           -2.2011    -2.8858     0.3913 N.2     
  13 N13           -1.7946    -4.2150     0.2168 N.pl3   
  14 C14           -0.4525    -4.2176     0.0054 C.2     
  15 C15           -2.6230    -5.3405     0.2578 C.ar    
  16 C16           -2.2258    -6.4963     0.9270 C.ar    
  17 C17           -3.8700    -5.3333    -0.3648 C.ar    
  18 C18           -4.6576    -6.4643    -0.3014 C.ar    
  19 N19           -4.2435    -7.5420     0.3378 N.ar    
  20 C20           -3.0725    -7.5859     0.9441 C.ar    
  21 C21           -6.0081    -6.4689    -0.9701 C.3     
  22 H22           -2.7706    -8.4877     1.4561 H       
  23 C23            0.4073    -5.4325    -0.2312 C.3     
  24 C24            1.0517    -5.8519     1.0649 C.2     
  25 O25            1.8664    -6.9183     1.0950 O.3     
  26 O26            0.8351    -5.2284     2.0769 O.2     
  27 H27           -3.4724    -1.4654    -0.5742 H       
  28 H28           -1.4568     1.5892     1.6382 H       
  29 H29           -3.5727     2.8268     1.8536 H       
  30 H30           -0.2850    -0.2435     0.3901 H       
  31 H31            0.9915    -2.5995    -0.0854 H       
  32 H32           -1.2684    -6.5390     1.4250 H       
  33 H33           -4.2151    -4.4546    -0.8892 H       
  34 H34           -5.9037    -6.8180    -1.9974 H       
  35 H35           -6.6802    -7.1334    -0.4271 H       
  36 H36           -6.4173    -5.4586    -0.9695 H       
  37 H37           -0.2105    -6.2467    -0.6100 H       
  38 H38            1.1809    -5.1935    -0.9610 H       
  39 H39            2.2564    -7.1488     1.9493 H       
@<TRIPOS>BOND
   1    1    2 ar
   2    1    6 ar
   3    1   27 1
   4    2    3 ar
   5    2    9 1
   6    3    4 ar
   7    3   28 1
   8    4    5 ar
   9    4   29 1
  10    5    6 ar
  11    5    8 1
  12    6    7 1
  13    9   10 1
  14    9   30 1
  15   10   11 1
  16   10   12 2
  17   11   14 2
  18   11   31 1
  19   12   13 1
  20   13   14 1
  21   13   15 1
  22   14   23 1
  23   15   16 ar
  24   15   17 ar
  25   16   20 ar
  26   16   32 1
  27   17   18 ar
  28   17   33 1
  29   18   19 ar
  30   18   21 1
  31   19   20 ar
  32   20   22 1
  33   21   34 1
  34   21   35 1
  35   21   36 1
  36   23   24 1
  37   23   37 1
  38   23   38 1
  39   24   25 1
  40   24   26 2
  41   25   39 1

#	End of record

