#	Name: ASD00840844
#	Creating user name:	WinNT
#	Creation time:	15. 06. 2019 18:40

#	Modifying user name:	WinNT
#	Modification time:	15. 06. 2019 18:40

#	Program:	/corina/corina34_cracker 3.40 0067  02.08.2006

@<TRIPOS>MOLECULE
ASD00840844
 101  106    0    0    0
SMALL
NO_CHARGES


@<TRIPOS>ATOM
   1 F1             5.9964    -1.9386    -2.1175 F       
   2 N2             0.9815     1.4269    -0.8284 N.ar    
   3 C3             1.2577     0.1363    -0.9115 C.ar    
   4 C4             1.1995    -0.6740     0.2154 C.ar    
   5 C5             0.8478    -0.1131     1.4305 C.ar    
   6 C6             0.5653     1.2454     1.4756 C.ar    
   7 C7             0.6432     1.9903     0.3160 C.ar    
   8 C8             1.5146    -2.1443     0.1158 C.3     
   9 C9             1.2590    -2.8322     1.4397 C.2     
  10 C10            0.6867    -2.7944    -0.9946 C.3     
  11 C11           -0.7749    -2.5084    -0.7644 C.2     
  12 N12           -1.7031    -3.0433    -1.5821 N.am    
  13 O13           -1.1158    -1.7970     0.1568 O.2     
  14 C14           -3.1205    -2.6817    -1.4436 C.3     
  15 C15           -3.9452    -3.9649    -1.3031 C.3     
  16 C16           -3.6454    -4.8911    -2.4839 C.3     
  17 C17           -2.1619    -5.2671    -2.4757 C.3     
  18 C18           -1.3162    -3.9943    -2.6331 C.3     
  19 N19           -4.4595    -6.1086    -2.3700 N.3     
  20 C20           -4.2868    -6.9698    -3.5481 C.3     
  21 C21           -5.0869    -8.2602    -3.3552 C.3     
  22 N22           -6.5041    -7.9290    -3.1517 N.3     
  23 C23           -6.6768    -7.0678    -1.9735 C.3     
  24 C24           -5.8767    -5.7774    -2.1665 C.3     
  25 C25           -7.3181    -9.1465    -3.0378 C.3     
  26 O26            0.1954    -2.9086     2.0177 O.2     
  27 N27            2.4305    -3.3425     1.8543 N.am    
  28 C28            2.9918    -2.3539    -0.1294 C.ar    
  29 C29            3.4687    -3.0802     0.9571 C.ar    
  30 C30            3.8307    -1.9725    -1.1532 C.ar    
  31 C31            5.1721    -2.3108    -1.1139 C.ar    
  32 C32            5.6692    -3.0408    -0.0294 C.ar    
  33 C33            4.8145    -3.4241     1.0037 C.ar    
  34 C34            2.3448    -5.8871     2.8994 C.ar    
  35 C35            1.0899    -6.3119     2.4873 C.ar    
  36 C36            3.3792    -6.7961     3.0168 C.ar    
  37 C37            3.1668    -8.1294     2.7239 C.ar    
  38 C38            1.9132    -8.5592     2.3112 C.ar    
  39 C39            0.8741    -7.6496     2.1931 C.ar    
  40 O40            1.7048    -9.8710     2.0236 O.3     
  41 O41            0.0730    -5.4177     2.3725 O.3     
  42 C42            2.8206   -10.7520     2.1678 C.3     
  43 C43           -1.1919    -5.9253     1.9430 C.3     
  44 C44           -2.2041    -4.7801     1.8738 C.3     
  45 C45           -8.7617    -8.7653    -2.7034 C.3     
  46 C46           -7.2859    -9.9076    -4.3646 C.3     
  47 O47            1.6008    -0.4016    -2.1089 O.3     
  48 C48            2.0660    -0.2835    -4.4775 C.3     
  49 C49            1.5342     0.4573    -3.2490 C.3     
  50 S50            2.6218    -4.1862     3.2664 S.o2    
  51 O51            3.9931    -4.0702     3.6205 O.2     
  52 O52            1.5614    -3.7824     4.1219 O.2     
  53 C53            7.0558    -3.3953     0.0197 C.1     
  54 N54            8.1557    -3.6766     0.0587 N.1     
  55 H55            0.7939    -0.7184     2.3233 H       
  56 H56            0.2873     1.7144     2.4079 H       
  57 H57            0.4248     3.0476     0.3458 H       
  58 H58            0.9891    -2.3870    -1.9593 H       
  59 H59            0.8516    -3.8718    -0.9874 H       
  60 H60           -3.2545    -2.0622    -0.5568 H       
  61 H61           -3.4458    -2.1332    -2.3275 H       
  62 H62           -3.6823    -4.4663    -0.3716 H       
  63 H63           -5.0065    -3.7164    -1.2960 H       
  64 H64           -3.8853    -4.3801    -3.4163 H       
  65 H65           -1.9158    -5.7562    -1.5332 H       
  66 H66           -1.9539    -5.9453    -3.3032 H       
  67 H67           -1.4956    -3.5554    -3.6146 H       
  68 H68           -0.2599    -4.2423    -2.5290 H       
  69 H69           -4.6459    -6.4485    -4.4355 H       
  70 H70           -3.2309    -7.2114    -3.6704 H       
  71 H71           -4.9835    -8.8879    -4.2403 H       
  72 H72           -4.7096    -8.7951    -2.4836 H       
  73 H73           -7.7326    -6.8262    -1.8513 H       
  74 H74           -6.3176    -7.5891    -1.0862 H       
  75 H75           -5.9800    -5.1497    -1.2814 H       
  76 H76           -6.2539    -5.2425    -3.0381 H       
  77 H77           -6.9167    -9.7792    -2.2461 H       
  78 H78            3.4410    -1.4089    -1.9880 H       
  79 H79            5.1988    -3.9878     1.8409 H       
  80 H80            4.3553    -6.4635     3.3377 H       
  81 H81            3.9769    -8.8377     2.8157 H       
  82 H82           -0.1022    -7.9822     1.8726 H       
  83 H83            2.5185   -11.7665     1.9076 H       
  84 H84            3.6248   -10.4312     1.5056 H       
  85 H85            3.1696   -10.7304     3.2002 H       
  86 H86           -1.0862    -6.3769     0.9566 H       
  87 H87           -1.5412    -6.6767     2.6511 H       
  88 H88           -1.8548    -4.0286     1.1657 H       
  89 H89           -3.1689    -5.1673     1.5463 H       
  90 H90           -2.3098    -4.3285     2.8602 H       
  91 H91           -9.1631    -8.1327    -3.4951 H       
  92 H92           -9.3657    -9.6687    -2.6188 H       
  93 H93           -8.7847    -8.2231    -1.7581 H       
  94 H94           -6.2575   -10.1792    -4.6028 H       
  95 H95           -7.8899   -10.8110    -4.2801 H       
  96 H96           -7.6873    -9.2749    -5.1563 H       
  97 H97            2.0973     0.3980    -5.3275 H       
  98 H98            3.0703    -0.6541    -4.2718 H       
  99 H99            1.4094    -1.1224    -4.7083 H       
 100 H100           0.4991     0.7517    -3.4221 H       
 101 H101           2.1397     1.3459    -3.0703 H       
@<TRIPOS>BOND
   1    1   31 1
   2    2    3 ar
   3    2    7 ar
   4    3    4 ar
   5    3   47 1
   6    4    5 ar
   7    4    8 1
   8    5    6 ar
   9    5   55 1
  10    6    7 ar
  11    6   56 1
  12    7   57 1
  13    8    9 1
  14    8   10 1
  15    8   28 1
  16    9   26 2
  17    9   27 am
  18   10   11 1
  19   10   58 1
  20   10   59 1
  21   11   12 am
  22   11   13 2
  23   12   14 1
  24   12   18 1
  25   14   15 1
  26   14   60 1
  27   14   61 1
  28   15   16 1
  29   15   62 1
  30   15   63 1
  31   16   17 1
  32   16   19 1
  33   16   64 1
  34   17   18 1
  35   17   65 1
  36   17   66 1
  37   18   67 1
  38   18   68 1
  39   19   20 1
  40   19   24 1
  41   20   21 1
  42   20   69 1
  43   20   70 1
  44   21   22 1
  45   21   71 1
  46   21   72 1
  47   22   23 1
  48   22   25 1
  49   23   24 1
  50   23   73 1
  51   23   74 1
  52   24   75 1
  53   24   76 1
  54   25   45 1
  55   25   46 1
  56   25   77 1
  57   27   50 am
  58   27   29 1
  59   28   29 ar
  60   28   30 ar
  61   29   33 ar
  62   30   31 ar
  63   30   78 1
  64   31   32 ar
  65   32   33 ar
  66   32   53 1
  67   33   79 1
  68   34   35 ar
  69   34   36 ar
  70   34   50 1
  71   35   41 1
  72   35   39 ar
  73   36   37 ar
  74   36   80 1
  75   37   38 ar
  76   37   81 1
  77   38   39 ar
  78   38   40 1
  79   39   82 1
  80   40   42 1
  81   41   43 1
  82   42   83 1
  83   42   84 1
  84   42   85 1
  85   43   44 1
  86   43   86 1
  87   43   87 1
  88   44   88 1
  89   44   89 1
  90   44   90 1
  91   45   91 1
  92   45   92 1
  93   45   93 1
  94   46   94 1
  95   46   95 1
  96   46   96 1
  97   47   49 1
  98   48   49 1
  99   48   97 1
 100   48   98 1
 101   48   99 1
 102   49  100 1
 103   49  101 1
 104   50   51 2
 105   50   52 2
 106   53   54 3

#	End of record

