#	Name: ASD01810142
#	Creating user name:	WinNT
#	Creation time:	15. 06. 2019 19:23

#	Modifying user name:	WinNT
#	Modification time:	15. 06. 2019 19:23

#	Program:	/corina/corina34_cracker 3.40 0067  02.08.2006

@<TRIPOS>MOLECULE
ASD01810142
  34   36    0    0    0
SMALL
NO_CHARGES


@<TRIPOS>ATOM
   1 C1             1.7140     2.4297     0.9723 C.ar    
   2 C2             1.2278     1.1319     1.0361 C.ar    
   3 C3             2.0223     0.0635     0.6749 C.ar    
   4 C4             3.3289     0.2837     0.2402 C.ar    
   5 C5             3.8171     1.5995     0.1772 C.ar    
   6 C6             3.0016     2.6695     0.5458 C.ar    
   7 N7             4.1341    -0.7749    -0.1228 N.pl3   
   8 C8             5.3946    -0.6162    -0.5450 C.2     
   9 C9             5.9846     0.6276    -0.6485 C.2     
  10 C10            5.2007     1.8188    -0.2843 C.2     
  11 O11            5.6754     2.9385    -0.3584 O.2     
  12 C12            7.3718     0.7601    -1.1155 C.2     
  13 O13            7.9368     1.9802    -1.2123 O.3     
  14 O14            8.0098    -0.2306    -1.4144 O.2     
  15 C15            3.5871    -2.1316    -0.0427 C.3     
  16 F16            1.5352    -1.1948     0.7427 F       
  17 C17            3.7169    -2.6430     1.3689 C.ar    
  18 C18            2.5944    -3.0587     2.0592 C.ar    
  19 C19            2.7127    -3.5280     3.3543 C.ar    
  20 C20            3.9548    -3.5820     3.9604 C.ar    
  21 C21            5.0795    -3.1664     3.2711 C.ar    
  22 C22            4.9620    -2.7018     1.9724 C.ar    
  23 F23            6.0599    -2.2960     1.2978 F       
  24 Br24           4.1151    -4.2235     5.7320 Br      
  25 H25            1.0786     3.2562     1.2541 H       
  26 H26            0.2166     0.9562     1.3725 H       
  27 H27            3.3777     3.6807     0.4967 H       
  28 H28            5.9693    -1.4905    -0.8132 H       
  29 H29            8.8514     2.0170    -1.5242 H       
  30 H30            2.5353    -2.1168    -0.3284 H       
  31 H31            4.1379    -2.7860    -0.7183 H       
  32 H32            1.6240    -3.0166     1.5870 H       
  33 H33            1.8347    -3.8523     3.8931 H       
  34 H34            6.0493    -3.2077     3.7444 H       
@<TRIPOS>BOND
   1    1    2 ar
   2    1    6 ar
   3    1   25 1
   4    2    3 ar
   5    2   26 1
   6    3    4 ar
   7    3   16 1
   8    4    5 ar
   9    4    7 1
  10    5    6 ar
  11    5   10 1
  12    6   27 1
  13    7    8 1
  14    7   15 1
  15    8    9 2
  16    8   28 1
  17    9   10 1
  18    9   12 1
  19   10   11 2
  20   12   13 1
  21   12   14 2
  22   13   29 1
  23   15   17 1
  24   15   30 1
  25   15   31 1
  26   17   18 ar
  27   17   22 ar
  28   18   19 ar
  29   18   32 1
  30   19   20 ar
  31   19   33 1
  32   20   21 ar
  33   20   24 1
  34   21   22 ar
  35   21   34 1
  36   22   23 1

#	End of record

