#	Name: ASD01882359
#	Creating user name:	WinNT
#	Creation time:	15. 06. 2019 19:44

#	Modifying user name:	WinNT
#	Modification time:	15. 06. 2019 19:44

#	Program:	/corina/corina34_cracker 3.40 0067  02.08.2006

@<TRIPOS>MOLECULE
ASD01882359
  54   59    0    0    0
SMALL
NO_CHARGES


@<TRIPOS>ATOM
   1 C1             0.0272     1.5728     0.1934 C.3     
   2 O2             0.0841     0.1423     0.3130 O.3     
   3 C3             1.3220    -0.2323    -0.3204 C.3     
   4 C4             2.2454     0.9533    -0.1625 C.ar    
   5 C5             3.6132     1.0943    -0.2725 C.ar    
   6 C6             4.1983     2.3307    -0.0692 C.ar    
   7 C7             3.4128     3.4246     0.2442 C.ar    
   8 C8             2.0415     3.2836     0.3538 C.ar    
   9 C9             1.4572     2.0505     0.1502 C.ar    
  10 N10           -2.7788     1.8752     0.1715 N.pl3   
  11 C11           -2.1259     1.4082    -1.0589 C.3     
  12 C12           -0.6956     1.9570    -1.0965 C.3     
  13 C13           -0.6919     2.1671     1.4026 C.3     
  14 C14           -2.1226     1.6213     1.4613 C.3     
  15 F15            1.8667    -1.3550     0.3123 F       
  16 F16            1.1079    -0.4992    -1.6769 F       
  17 C17           -6.3397     2.6740     0.5803 C.2     
  18 C18           -5.1216     1.9765     0.6478 C.2     
  19 C19           -3.9966     2.5463     0.1164 C.2     
  20 C20           -4.0794     3.8198    -0.4879 C.2     
  21 C21           -5.2578     4.4708    -0.5415 C.2     
  22 N22           -6.3852     3.9115    -0.0147 N.pl3   
  23 N23           -8.3508     3.3758     0.6852 N.2     
  24 N24           -7.5700     2.3983     0.9855 N.2     
  25 C25           -7.6834     4.3202     0.0762 C.2     
  26 C26           -5.0550     0.6185     1.2976 C.3     
  27 F27           -4.6901     0.7615     2.6405 F       
  28 F28           -6.3081     0.0015     1.2180 F       
  29 F29           -4.1051    -0.1683     0.6374 F       
  30 C30           -8.2456     5.6221    -0.4337 C.3     
  31 C31           -8.7202     5.4422    -1.8770 C.3     
  32 C32           -9.4333     6.6231    -2.5386 C.3     
  33 C33           -8.0095     6.2552    -2.9609 C.3     
  34 H34            4.2267     0.2397    -0.5168 H       
  35 H35            5.2691     2.4418    -0.1548 H       
  36 H36            3.8706     4.3897     0.4038 H       
  37 H37            1.4283     4.1384     0.5982 H       
  38 H38           -2.0996     0.3185    -1.0678 H       
  39 H39           -2.6789     1.7696    -1.9259 H       
  40 H40           -0.7248     3.0428    -1.1875 H       
  41 H41           -0.1659     1.5340    -1.9501 H       
  42 H42           -0.1600     1.8921     2.3134 H       
  43 H43           -0.7204     3.2529     1.3114 H       
  44 H44           -2.6731     2.1238     2.2566 H       
  45 H45           -2.0968     0.5486     1.6533 H       
  46 H46           -3.1944     4.2740    -0.9084 H       
  47 H47           -5.3104     5.4445    -1.0059 H       
  48 H48           -9.0868     5.9238     0.1904 H       
  49 H49           -7.4730     6.3902    -0.3983 H       
  50 H50           -9.0575     4.4395    -2.1395 H       
  51 H51          -10.2395     6.3974    -3.2366 H       
  52 H52           -9.5643     7.5283    -1.9456 H       
  53 H53           -7.2038     6.9182    -2.6457 H       
  54 H54           -7.8790     5.7873    -3.9367 H       
@<TRIPOS>BOND
   1    1    2 1
   2    1    9 1
   3    1   12 1
   4    1   13 1
   5    2    3 1
   6    3    4 1
   7    3   15 1
   8    3   16 1
   9    4    5 ar
  10    4    9 ar
  11    5    6 ar
  12    5   34 1
  13    6    7 ar
  14    6   35 1
  15    7    8 ar
  16    7   36 1
  17    8    9 ar
  18    8   37 1
  19   10   11 1
  20   10   14 1
  21   10   19 1
  22   11   12 1
  23   11   38 1
  24   11   39 1
  25   12   40 1
  26   12   41 1
  27   13   14 1
  28   13   42 1
  29   13   43 1
  30   14   44 1
  31   14   45 1
  32   17   18 1
  33   17   22 1
  34   17   24 2
  35   18   19 2
  36   18   26 1
  37   19   20 1
  38   20   21 2
  39   20   46 1
  40   21   22 1
  41   21   47 1
  42   22   25 1
  43   23   24 1
  44   23   25 2
  45   25   30 1
  46   26   27 1
  47   26   28 1
  48   26   29 1
  49   30   31 1
  50   30   48 1
  51   30   49 1
  52   31   32 1
  53   31   33 1
  54   31   50 1
  55   32   33 1
  56   32   51 1
  57   32   52 1
  58   33   53 1
  59   33   54 1

#	End of record

