#	Name: ASD01884912
#	Creating user name:	WinNT
#	Creation time:	15. 06. 2019 19:49

#	Modifying user name:	WinNT
#	Modification time:	15. 06. 2019 19:49

#	Program:	/corina/corina34_cracker 3.40 0067  02.08.2006

@<TRIPOS>MOLECULE
ASD01884912
  53   58    0    0    0
SMALL
NO_CHARGES


@<TRIPOS>ATOM
   1 C1             0.5030     1.5005     0.1386 C.ar    
   2 C2             0.3443     0.1292     0.0960 C.ar    
   3 C3             1.4599    -0.6984    -0.0307 C.ar    
   4 C4             2.7335    -0.1390    -0.1223 C.ar    
   5 C5             2.8791     1.2382    -0.0867 C.ar    
   6 C6             1.7682     2.0493     0.0554 C.ar    
   7 C7             1.2915    -2.1704    -0.0674 C.2     
   8 C8             1.5669    -2.8755    -1.2234 C.2     
   9 C9             0.8526    -2.8687     1.0837 C.2     
  10 C10            0.7011    -4.2059     1.0487 C.2     
  11 N11            0.9658    -4.9101    -0.0905 N.pl3   
  12 C12            1.3982    -4.2707    -1.2273 C.2     
  13 C13            0.9033    -6.2322    -0.4089 C.2     
  14 N14            1.2723    -6.3548    -1.6579 N.2     
  15 N15            1.5676    -5.2038    -2.1515 N.2     
  16 O16            4.1135     1.7984    -0.2180 O.3     
  17 C17            4.3372     2.5096    -1.4412 C.3     
  18 C18            3.8495     3.9380    -1.3296 C.3     
  19 N19            2.4032     4.0506    -1.1597 N.3     
  20 C20            1.9492     3.5522     0.1434 C.3     
  21 C21            1.9768     5.3586    -1.3695 C.ar    
  22 C22            2.8947     6.3801    -1.6129 C.ar    
  23 C23            2.4313     7.6629    -1.8158 C.ar    
  24 N24            1.1389     7.9289    -1.7818 N.ar    
  25 C25            0.2391     6.9902    -1.5545 C.ar    
  26 C26            0.6200     5.6811    -1.3476 C.ar    
  27 C27            0.4851    -7.3508     0.5103 C.3     
  28 C28           -0.7275    -8.1878     0.0982 C.3     
  29 C29            0.6787    -8.7844     0.0119 C.3     
  30 C30            2.0406    -2.1590    -2.4617 C.3     
  31 F31            3.4189    -1.9365    -2.3732 F       
  32 F32            1.7660    -2.9426    -3.5877 F       
  33 F33            1.3765    -0.9328    -2.5738 F       
  34 H34           -0.3603     2.1426     0.2322 H       
  35 H35           -0.6436    -0.3023     0.1612 H       
  36 H36            3.6009    -0.7750    -0.2201 H       
  37 H37            0.6388    -2.3266     1.9930 H       
  38 H38            0.3664    -4.7281     1.9328 H       
  39 H39            5.4039     2.5113    -1.6652 H       
  40 H40            3.8026     2.0102    -2.2493 H       
  41 H41            4.3384     4.4076    -0.4761 H       
  42 H42            4.1375     4.4763    -2.2325 H       
  43 H43            0.9995     4.0201     0.4028 H       
  44 H44            2.6940     3.7866     0.9039 H       
  45 H45            3.9536     6.1695    -1.6418 H       
  46 H46            3.1348     8.4603    -2.0046 H       
  47 H47           -0.8090     7.2500    -1.5346 H       
  48 H48           -0.1213     4.9179    -1.1625 H       
  49 H49            0.6294    -7.1638     1.5743 H       
  50 H50           -1.3809    -8.5517     0.8912 H       
  51 H51           -1.2229    -7.9293    -0.8378 H       
  52 H52            1.1085    -8.9184    -0.9808 H       
  53 H53            0.9506    -9.5408     0.7481 H       
@<TRIPOS>BOND
   1    1    2 ar
   2    1    6 ar
   3    1   34 1
   4    2    3 ar
   5    2   35 1
   6    3    4 ar
   7    3    7 1
   8    4    5 ar
   9    4   36 1
  10    5    6 ar
  11    5   16 1
  12    6   20 1
  13    7    8 2
  14    7    9 1
  15    8   30 1
  16    8   12 1
  17    9   10 2
  18    9   37 1
  19   10   11 1
  20   10   38 1
  21   11   12 1
  22   11   13 1
  23   12   15 2
  24   13   14 2
  25   13   27 1
  26   14   15 1
  27   16   17 1
  28   17   18 1
  29   17   39 1
  30   17   40 1
  31   18   19 1
  32   18   41 1
  33   18   42 1
  34   19   20 1
  35   19   21 1
  36   20   43 1
  37   20   44 1
  38   21   22 ar
  39   21   26 ar
  40   22   23 ar
  41   22   45 1
  42   23   24 ar
  43   23   46 1
  44   24   25 ar
  45   25   26 ar
  46   25   47 1
  47   26   48 1
  48   27   28 1
  49   27   29 1
  50   27   49 1
  51   28   29 1
  52   28   50 1
  53   28   51 1
  54   29   52 1
  55   29   53 1
  56   30   31 1
  57   30   32 1
  58   30   33 1

#	End of record

