#	Name: ASD01917946
#	Creating user name:	WinNT
#	Creation time:	15. 06. 2019 20:10

#	Modifying user name:	WinNT
#	Modification time:	15. 06. 2019 20:10

#	Program:	/corina/corina34_cracker 3.40 0067  02.08.2006

@<TRIPOS>MOLECULE
ASD01917946
  40   42    0    0    0
SMALL
NO_CHARGES


@<TRIPOS>ATOM
   1 C1            -0.1240     1.2280    -0.0886 C.ar    
   2 C2            -0.2494    -0.0064    -0.7117 C.ar    
   3 C3             0.8478    -0.8426    -0.8286 C.ar    
   4 C4             2.0751    -0.4525    -0.3257 C.ar    
   5 C5             2.2087     0.7871     0.3015 C.ar    
   6 C6             1.1012     1.6278     0.4184 C.ar    
   7 O7            -1.2030     2.0470     0.0189 O.3     
   8 C8            -2.0022     1.9096     1.1095 C.ar    
   9 C9             3.5191     1.2076     0.8410 C.2     
  10 N10            4.5872     0.3935     0.7277 N.am    
  11 O11            3.6333     2.2877     1.3870 O.2     
  12 N12           -3.9334     2.4746     2.3023 N.ar    
  13 C13           -3.1828     2.6364     1.2251 C.ar    
  14 C14           -1.6638     1.0341     2.1363 C.ar    
  15 N15           -2.4681     0.9288     3.1813 N.ar    
  16 C16           -3.5757     1.6391     3.2567 C.ar    
  17 F17            0.7188    -2.0428    -1.4353 F       
  18 C18            5.8185     0.7887     1.2346 C.2     
  19 N19            6.9065     0.0863     1.1740 N.2     
  20 S20            6.1215     2.2752     2.0230 S.3     
  21 C21            7.8104     1.8254     2.2446 C.2     
  22 C22            7.9905     0.6167     1.7086 C.2     
  23 C23            9.3240    -0.0852     1.7119 C.3     
  24 C24            9.1717    -1.4666     2.3519 C.3     
  25 C25           10.5256    -2.1792     2.3553 C.3     
  26 H26           -1.2061    -0.3154    -1.1062 H       
  27 H27            2.9295    -1.1066    -0.4178 H       
  28 H28            1.1992     2.5880     0.9029 H       
  29 H29            4.4961    -0.4684     0.2920 H       
  30 H30           -3.4819     3.3231     0.4470 H       
  31 H31           -0.7579     0.4488     2.0810 H       
  32 H32           -4.2106     1.5301     4.1235 H       
  33 H33            8.5684     2.4248     2.7268 H       
  34 H34            9.6785    -0.1967     0.6872 H       
  35 H35           10.0426     0.5026     2.2830 H       
  36 H36            8.8172    -1.3551     3.3766 H       
  37 H37            8.4531    -2.0544     1.7808 H       
  38 H38           10.8801    -2.2907     1.3306 H       
  39 H39           11.2442    -1.5914     2.9264 H       
  40 H40           10.4171    -3.1633     2.8113 H       
@<TRIPOS>BOND
   1    1    2 ar
   2    1    6 ar
   3    1    7 1
   4    2    3 ar
   5    2   26 1
   6    3    4 ar
   7    3   17 1
   8    4    5 ar
   9    4   27 1
  10    5    6 ar
  11    5    9 1
  12    6   28 1
  13    7    8 1
  14    8   14 ar
  15    8   13 ar
  16    9   10 am
  17    9   11 2
  18   10   18 1
  19   10   29 1
  20   12   13 ar
  21   12   16 ar
  22   13   30 1
  23   14   15 ar
  24   14   31 1
  25   15   16 ar
  26   16   32 1
  27   18   20 1
  28   18   19 2
  29   19   22 1
  30   20   21 1
  31   21   22 2
  32   21   33 1
  33   22   23 1
  34   23   24 1
  35   23   34 1
  36   23   35 1
  37   24   25 1
  38   24   36 1
  39   24   37 1
  40   25   38 1
  41   25   39 1
  42   25   40 1

#	End of record

