#	Name: ASD01916926
#	Creating user name:	WinNT
#	Creation time:	15. 06. 2019 20:08

#	Modifying user name:	WinNT
#	Modification time:	15. 06. 2019 20:08

#	Program:	/corina/corina34_cracker 3.40 0067  02.08.2006

@<TRIPOS>MOLECULE
ASD01916926
  61   65    0    0    0
SMALL
NO_CHARGES


@<TRIPOS>ATOM
   1 C1            -0.0028     1.3472     0.1637 C.ar    
   2 C2             0.0295    -0.0122     0.4293 C.ar    
   3 C3             1.2428    -0.6646     0.5769 C.ar    
   4 C4             2.4247     0.0376     0.4597 C.ar    
   5 C5             2.3968     1.4049     0.1925 C.ar    
   6 C6             1.1743     2.0571     0.0449 C.ar    
   7 C7             3.6654     2.1644     0.0661 C.2     
   8 N8             4.8944     1.6503     0.1869 N.2     
   9 N9             3.7637     3.4514    -0.1886 N.2     
  10 N10            5.1337     3.7577    -0.2226 N.pl3   
  11 C11            5.7910     2.5992     0.0174 C.2     
  12 C12            7.2594     2.4290     0.0784 C.ar    
  13 C13            5.7332     5.0708    -0.4731 C.3     
  14 C14            5.8628     5.8202     0.8280 C.2     
  15 O15            5.4911     5.3079     1.8625 O.2     
  16 N16            6.3919     7.0597     0.8419 N.am    
  17 C17            6.5275     7.8085     2.1005 C.3     
  18 C18            7.9700     8.3132     2.2136 C.3     
  19 N19            8.3181     9.0670     1.0017 N.3     
  20 C20            8.2786     8.2084    -0.1896 C.3     
  21 C21            6.8544     7.6970    -0.4003 C.3     
  22 C22            9.5655     9.6809     1.1351 C.ar    
  23 C23           10.0792    10.4440     0.0958 C.ar    
  24 C24           10.2915     9.5332     2.3109 C.ar    
  25 C25           11.3174    11.0520     0.2323 C.ar    
  26 C26           12.0401    10.8967     1.4067 C.ar    
  27 C27           11.5246    10.1412     2.4430 C.ar    
  28 C28            8.0834     3.5331     0.2985 C.ar    
  29 C29            9.4517     3.3692     0.3545 C.ar    
  30 C30           10.0084     2.1105     0.1922 C.ar    
  31 C31            9.1942     1.0106    -0.0271 C.ar    
  32 C32            7.8244     1.1629    -0.0782 C.ar    
  33 F33           11.3493     1.9552     0.2475 F       
  34 F34           -1.1254    -0.7035     0.5453 F       
  35 O35           11.8234    11.7995    -0.7836 O.3     
  36 C36           13.1045    12.3968    -0.5739 C.3     
  37 H37           -0.9507     1.8510     0.0449 H       
  38 H38            1.2636    -1.7243     0.7843 H       
  39 H39            3.3701    -0.4716     0.5751 H       
  40 H40            1.1483     3.1166    -0.1625 H       
  41 H41            6.7199     4.9409    -0.9175 H       
  42 H42            5.0986     5.6356    -1.1560 H       
  43 H43            5.8422     8.6561     2.0980 H       
  44 H44            6.3016     7.1538     2.9422 H       
  45 H45            8.0610     8.9624     3.0844 H       
  46 H46            8.6451     7.4641     2.3202 H       
  47 H47            8.5934     8.7816    -1.0616 H       
  48 H48            8.9494     7.3608    -0.0495 H       
  49 H49            6.8427     6.9705    -1.2128 H       
  50 H50            6.1975     8.5324    -0.6429 H       
  51 H51            9.5155    10.5635    -0.8176 H       
  52 H52            9.8911     8.9431     3.1220 H       
  53 H53           13.0048    11.3706     1.5129 H       
  54 H54           12.0891    10.0223     3.3560 H       
  55 H55            7.6506     4.5146     0.4244 H       
  56 H56           10.0904     4.2233     0.5248 H       
  57 H57            9.6329     0.0318    -0.1533 H       
  58 H58            7.1908     0.3051    -0.2488 H       
  59 H59           13.0575    13.0649     0.2861 H       
  60 H60           13.8430    11.6168    -0.3881 H       
  61 H61           13.3903    12.9641    -1.4596 H       
@<TRIPOS>BOND
   1    1    2 ar
   2    1    6 ar
   3    1   37 1
   4    2    3 ar
   5    2   34 1
   6    3    4 ar
   7    3   38 1
   8    4    5 ar
   9    4   39 1
  10    5    6 ar
  11    5    7 1
  12    6   40 1
  13    7    8 1
  14    7    9 2
  15    8   11 2
  16    9   10 1
  17   10   11 1
  18   10   13 1
  19   11   12 1
  20   12   28 ar
  21   12   32 ar
  22   13   14 1
  23   13   41 1
  24   13   42 1
  25   14   15 2
  26   14   16 am
  27   16   17 1
  28   16   21 1
  29   17   18 1
  30   17   43 1
  31   17   44 1
  32   18   19 1
  33   18   45 1
  34   18   46 1
  35   19   20 1
  36   19   22 1
  37   20   21 1
  38   20   47 1
  39   20   48 1
  40   21   49 1
  41   21   50 1
  42   22   23 ar
  43   22   24 ar
  44   23   25 ar
  45   23   51 1
  46   24   27 ar
  47   24   52 1
  48   25   26 ar
  49   25   35 1
  50   26   27 ar
  51   26   53 1
  52   27   54 1
  53   28   29 ar
  54   28   55 1
  55   29   30 ar
  56   29   56 1
  57   30   31 ar
  58   30   33 1
  59   31   32 ar
  60   31   57 1
  61   32   58 1
  62   35   36 1
  63   36   59 1
  64   36   60 1
  65   36   61 1

#	End of record

