#	Name: ASD01840473
#	Creating user name:	WinNT
#	Creation time:	15. 06. 2019 19:37

#	Modifying user name:	WinNT
#	Modification time:	15. 06. 2019 19:37

#	Program:	/corina/corina34_cracker 3.40 0067  02.08.2006

@<TRIPOS>MOLECULE
ASD01840473
  50   53    0    0    0
SMALL
NO_CHARGES


@<TRIPOS>ATOM
   1 C1             0.2610     1.7549    -0.9980 C.ar    
   2 C2             0.3840     0.5320    -1.6193 C.ar    
   3 N3             1.4992    -0.1678    -1.4965 N.ar    
   4 N4             2.5001     0.2427    -0.8112 N.ar    
   5 C5             1.3549     2.2266    -0.2363 C.ar    
   6 C6             1.5104     3.4570     0.5172 C.2     
   7 C7             2.4929     1.4123    -0.1669 C.ar    
   8 S8             3.7251     2.1827     0.8223 S.3     
   9 C9             2.7119     3.5785     1.1344 C.2     
  10 C10           -1.0000     2.5692    -1.1311 C.3     
  11 C11           -0.7564    -0.0106    -2.4416 C.3     
  12 N12            0.5177     4.4241     0.5986 N.pl3   
  13 C13            3.1098     4.7235     1.9521 C.2     
  14 O14            2.3396     5.6522     2.1150 O.2     
  15 N15            4.3293     4.7508     2.5253 N.am    
  16 C16            4.7281     5.8981     3.3445 C.3     
  17 C17            4.2581     5.7055     4.8011 C.3     
  18 C18            5.5525     5.6955     5.6423 C.3     
  19 N19            6.5407     6.4373     4.8175 N.3     
  20 C20            6.2669     5.9882     3.4282 C.3     
  21 C21            7.8472     6.1217     5.1974 C.ar    
  22 C22            8.2967     4.8096     5.1208 C.ar    
  23 C23            9.5893     4.5010     5.4968 C.ar    
  24 C24           10.4358     5.4966     5.9489 C.ar    
  25 C25            9.9916     6.8039     6.0264 C.ar    
  26 C26            8.7018     7.1202     5.6471 C.ar    
  27 C27           11.8455     5.1561     6.3587 C.3     
  28 F28           12.6921     5.2629     5.2501 F       
  29 F29           12.2683     6.0421     7.3555 F       
  30 F30           11.8847     3.8472     6.8511 F       
  31 H31           -1.6441     2.3847    -0.2714 H       
  32 H32           -0.7458     3.6283    -1.1740 H       
  33 H33           -1.5222     2.2837    -2.0443 H       
  34 H34           -0.6496     0.3211    -3.4744 H       
  35 H35           -0.7434    -1.0999    -2.4066 H       
  36 H36           -1.7010     0.3547    -2.0385 H       
  37 H37           -0.4030     4.1919     0.4002 H       
  38 H38            0.7448     5.3320     0.8537 H       
  39 H39            4.9429     4.0109     2.3955 H       
  40 H40            4.3152     6.8187     2.9321 H       
  41 H41            3.6160     6.5325     5.1042 H       
  42 H42            3.7307     4.7574     4.9066 H       
  43 H43            5.3922     6.2044     6.5927 H       
  44 H44            5.8890     4.6724     5.8099 H       
  45 H45            6.7153     5.0109     3.2493 H       
  46 H46            6.6445     6.7175     2.7115 H       
  47 H47            7.6359     4.0315     4.7681 H       
  48 H48            9.9392     3.4810     5.4378 H       
  49 H49           10.6553     7.5791     6.3800 H       
  50 H50            8.3569     8.1421     5.7036 H       
@<TRIPOS>BOND
   1    1    2 ar
   2    1    5 ar
   3    1   10 1
   4    2   11 1
   5    2    3 ar
   6    3    4 ar
   7    4    7 ar
   8    5    7 ar
   9    5    6 1
  10    6    9 2
  11    6   12 1
  12    7    8 1
  13    8    9 1
  14    9   13 1
  15   10   31 1
  16   10   32 1
  17   10   33 1
  18   11   34 1
  19   11   35 1
  20   11   36 1
  21   12   37 1
  22   12   38 1
  23   13   14 2
  24   13   15 am
  25   15   16 1
  26   15   39 1
  27   16   17 1
  28   16   20 1
  29   16   40 1
  30   17   18 1
  31   17   41 1
  32   17   42 1
  33   18   19 1
  34   18   43 1
  35   18   44 1
  36   19   20 1
  37   19   21 1
  38   20   45 1
  39   20   46 1
  40   21   22 ar
  41   21   26 ar
  42   22   23 ar
  43   22   47 1
  44   23   24 ar
  45   23   48 1
  46   24   25 ar
  47   24   27 1
  48   25   26 ar
  49   25   49 1
  50   26   50 1
  51   27   28 1
  52   27   29 1
  53   27   30 1

#	End of record

