#	Name: ASD01917235
#	Creating user name:	WinNT
#	Creation time:	15. 06. 2019 20:08

#	Modifying user name:	WinNT
#	Modification time:	15. 06. 2019 20:08

#	Program:	/corina/corina34_cracker 3.40 0067  02.08.2006

@<TRIPOS>MOLECULE
ASD01917235
  41   44    0    0    0
SMALL
NO_CHARGES


@<TRIPOS>ATOM
   1 C1             0.1522     0.6894    -0.4941 C.ar    
   2 C2             0.3203    -0.6716    -0.3032 C.ar    
   3 C3             1.5870    -1.1886    -0.0903 C.ar    
   4 C4             2.6820    -0.3457    -0.0687 C.ar    
   5 C5             2.5130     1.0130    -0.2595 C.ar    
   6 C6             1.2487     1.5303    -0.4721 C.ar    
   7 C7             3.7078     1.9311    -0.2352 C.3     
   8 O8             4.2408     2.0542    -1.5554 O.3     
   9 C9             5.3304     2.8535    -1.7093 C.2     
  10 N10            5.9340     3.5211    -0.7477 N.2     
  11 N11            6.9980     4.2250    -1.2967 N.pl3   
  12 C12            7.0315     3.9478    -2.6450 C.2     
  13 C13            5.9997     3.0978    -2.9164 C.2     
  14 C14            7.9621     5.1314    -0.6705 C.3     
  15 C15            9.2797     5.0779    -1.4435 C.3     
  16 N16            9.0874     5.1674    -2.8866 N.am    
  17 C17            8.0718     4.5253    -3.5121 C.2     
  18 O18            8.0222     4.4308    -4.7239 O.2     
  19 C19            9.9758     5.9377    -3.6453 C.ar    
  20 C20           11.3004     5.5423    -3.7783 C.ar    
  21 C21           12.1755     6.3040    -4.5275 C.ar    
  22 C22           11.7329     7.4613    -5.1460 C.ar    
  23 C23           10.4126     7.8577    -5.0143 C.ar    
  24 C24            9.5327     7.0956    -4.2711 C.ar    
  25 F25           12.5906     8.2050    -5.8784 F       
  26 F26           -0.7510    -1.4946    -0.3240 F       
  27 H27           -0.8349     1.0931    -0.6646 H       
  28 H28            1.7192    -2.2500     0.0591 H       
  29 H29            3.6701    -0.7487     0.0976 H       
  30 H30            1.1178     2.5919    -0.6210 H       
  31 H31            3.4040     2.9132     0.1270 H       
  32 H32            4.4692     1.5191     0.4271 H       
  33 H33            5.7423     2.6928    -3.8839 H       
  34 H34            7.5704     6.1485    -0.6887 H       
  35 H35            8.1327     4.8248     0.3615 H       
  36 H36            9.9115     5.9053    -1.1203 H       
  37 H37            9.7855     4.1403    -1.2130 H       
  38 H38           11.6460     4.6400    -3.2959 H       
  39 H39           13.2058     5.9971    -4.6309 H       
  40 H40           10.0696     8.7608    -5.4971 H       
  41 H41            8.5031     7.4051    -4.1686 H       
@<TRIPOS>BOND
   1    1    2 ar
   2    1    6 ar
   3    1   27 1
   4    2    3 ar
   5    2   26 1
   6    3    4 ar
   7    3   28 1
   8    4    5 ar
   9    4   29 1
  10    5    6 ar
  11    5    7 1
  12    6   30 1
  13    7    8 1
  14    7   31 1
  15    7   32 1
  16    8    9 1
  17    9   10 2
  18    9   13 1
  19   10   11 1
  20   11   12 1
  21   11   14 1
  22   12   13 2
  23   12   17 1
  24   13   33 1
  25   14   15 1
  26   14   34 1
  27   14   35 1
  28   15   16 1
  29   15   36 1
  30   15   37 1
  31   16   17 am
  32   16   19 1
  33   17   18 2
  34   19   20 ar
  35   19   24 ar
  36   20   21 ar
  37   20   38 1
  38   21   22 ar
  39   21   39 1
  40   22   23 ar
  41   22   25 1
  42   23   24 ar
  43   23   40 1
  44   24   41 1

#	End of record

