#	Name: ASD01912728
#	Creating user name:	WinNT
#	Creation time:	15. 06. 2019 20:00

#	Modifying user name:	WinNT
#	Modification time:	15. 06. 2019 20:00

#	Program:	/corina/corina34_cracker 3.40 0067  02.08.2006

@<TRIPOS>MOLECULE
ASD01912728
  44   47    0    0    0
SMALL
NO_CHARGES


@<TRIPOS>ATOM
   1 C1            -0.0165     1.3669     0.0096 C.2     
   2 N2             0.0021    -0.0041     0.0020 N.pl3   
   3 C3            -1.2024    -0.6922     0.0094 C.2     
   4 C4            -2.3629    -0.0503     0.0231 C.2     
   5 N5            -2.4359     1.3310     0.0307 N.am    
   6 C6            -1.3020     2.0669     0.0309 C.2     
   7 C7             1.3014     1.7836    -0.0008 C.2     
   8 C8             2.0550     0.6110    -0.0143 C.2     
   9 N9             1.2244    -0.4045    -0.0118 N.2     
  10 O10           -1.3488     3.2836     0.0376 O.2     
  11 C11           -3.6764     1.9628     0.0442 C.ar    
  12 C12            3.5594     0.5248    -0.0295 C.3     
  13 O13            4.1120     1.8427    -0.0282 O.3     
  14 C14            5.4672     1.9435    -0.0410 C.ar    
  15 C15            6.0711     3.1924    -0.0405 C.ar    
  16 C16            7.4489     3.2922    -0.0536 C.ar    
  17 C17            8.2259     2.1486    -0.0672 C.ar    
  18 C18            7.6265     0.9026    -0.0682 C.ar    
  19 C19            6.2491     0.7975    -0.0489 C.ar    
  20 C20           -4.8463     1.2186     0.1546 C.ar    
  21 C21           -6.0603     1.8967     0.1640 C.ar    
  22 C22           -4.9296     3.8935    -0.0302 C.ar    
  23 N23           -3.7600     3.2882    -0.0427 N.ar    
  24 N24           -6.0598     3.2227     0.0678 N.ar    
  25 C25           -4.9770     5.3965    -0.1305 C.3     
  26 O26           -7.2273     1.2156     0.2692 O.3     
  27 C27           -8.4305     1.9865     0.2713 C.3     
  28 H28           -1.1950    -1.7722     0.0035 H       
  29 H29           -3.2784    -0.6232     0.0281 H       
  30 H30            1.6684     2.7994     0.0008 H       
  31 H31            3.9015    -0.0135     0.8543 H       
  32 H32            3.8840    -0.0043    -0.9255 H       
  33 H33            5.4646     4.0860    -0.0302 H       
  34 H34            7.9195     4.2643    -0.0536 H       
  35 H35            9.3029     2.2287    -0.0775 H       
  36 H36            8.2356     0.0109    -0.0796 H       
  37 H37            5.7814    -0.1759    -0.0497 H       
  38 H38           -4.8127     0.1418     0.2307 H       
  39 H39           -5.0355     5.6890    -1.1789 H       
  40 H40           -5.8535     5.7685     0.4000 H       
  41 H41           -4.0763     5.8189     0.3149 H       
  42 H42           -8.5029     2.5496    -0.6592 H       
  43 H43           -9.2887     1.3204     0.3606 H       
  44 H44           -8.4177     2.6776     1.1141 H       
@<TRIPOS>BOND
   1    1    2 1
   2    1    7 2
   3    1    6 1
   4    2    3 1
   5    2    9 1
   6    3    4 2
   7    3   28 1
   8    4    5 1
   9    4   29 1
  10    5    6 am
  11    5   11 1
  12    6   10 2
  13    7    8 1
  14    7   30 1
  15    8    9 2
  16    8   12 1
  17   11   20 ar
  18   11   23 ar
  19   12   13 1
  20   12   31 1
  21   12   32 1
  22   13   14 1
  23   14   15 ar
  24   14   19 ar
  25   15   16 ar
  26   15   33 1
  27   16   17 ar
  28   16   34 1
  29   17   18 ar
  30   17   35 1
  31   18   19 ar
  32   18   36 1
  33   19   37 1
  34   20   21 ar
  35   20   38 1
  36   21   24 ar
  37   21   26 1
  38   22   23 ar
  39   22   25 1
  40   22   24 ar
  41   25   39 1
  42   25   40 1
  43   25   41 1
  44   26   27 1
  45   27   42 1
  46   27   43 1
  47   27   44 1

#	End of record

