#	Name: ASD04590997
#	Creating user name:	WinNT
#	Creation time:	15. 06. 2019 20:51

#	Modifying user name:	WinNT
#	Modification time:	15. 06. 2019 20:51

#	Program:	/corina/corina34_cracker 3.40 0067  02.08.2006

@<TRIPOS>MOLECULE
ASD04590997
  58   63    0    0    0
SMALL
NO_CHARGES


@<TRIPOS>ATOM
   1 N1            -0.0171     1.3232    -0.0119 N.ar    
   2 C2             0.0017    -0.0035    -0.0051 C.ar    
   3 N3             1.1298    -0.6949    -0.0118 N.ar    
   4 C4             2.3050    -0.0728    -0.0262 C.ar    
   5 C5             2.3189     1.3366    -0.0341 C.ar    
   6 C6             1.1072     2.0202    -0.0262 C.ar    
   7 N7             3.6031    -0.5195    -0.0358 N.pl3   
   8 C8             4.4823     0.5495    -0.0499 C.ar    
   9 C9             3.7312     1.7385    -0.0495 C.ar    
  10 C10            5.8680     0.6418    -0.0633 C.ar    
  11 N11            6.4613     1.8181    -0.0753 N.ar    
  12 C12            5.7850     2.9533    -0.0753 C.ar    
  13 C13            4.4063     2.9585    -0.0629 C.ar    
  14 C14            4.0018    -1.9292    -0.0312 C.3     
  15 N15           -1.2019    -0.6887     0.0098 N.pl3   
  16 C16           -2.4019     0.0120     0.1303 C.ar    
  17 N17           -2.3783     1.3196     0.3309 N.ar    
  18 C18           -3.4885     2.0229     0.4509 C.ar    
  19 C19           -4.7291     1.4087     0.3703 C.ar    
  20 C20           -4.7935     0.0321     0.1596 C.ar    
  21 C21           -3.6094    -0.6709     0.0326 C.ar    
  22 N22           -5.9023     2.1615     0.4995 N.3     
  23 C23            3.4580    -2.6115     1.2278 C.3     
  24 C24            3.8118    -4.1003     1.1853 C.3     
  25 O25            3.2730    -4.6829    -0.0032 O.3     
  26 C26            3.7813    -4.1167    -1.2128 C.3     
  27 C27            3.4262    -2.6285    -1.2666 C.3     
  28 C28           -5.5953     3.5824     0.7148 C.3     
  29 C29           -6.9000     4.3806     0.7711 C.3     
  30 N30           -7.7449     3.8574     1.8537 N.3     
  31 C31           -8.0519     2.4365     1.6384 C.3     
  32 C32           -6.7473     1.6383     1.5820 C.3     
  33 H33            1.0848     3.1000    -0.0316 H       
  34 H34            6.4645    -0.2585    -0.0635 H       
  35 H35            6.3203     3.8912    -0.0851 H       
  36 H36            3.8596     3.8899    -0.0633 H       
  37 H37            5.0894    -2.0006    -0.0438 H       
  38 H38           -1.2103    -1.6559    -0.0635 H       
  39 H39           -3.4301     3.0889     0.6140 H       
  40 H40           -5.7459    -0.4729     0.0926 H       
  41 H41           -3.6221    -1.7382    -0.1317 H       
  42 H42            3.9054    -2.1558     2.1111 H       
  43 H43            2.3748    -2.4954     1.2660 H       
  44 H44            4.8956    -4.2166     1.1879 H       
  45 H45            3.3904    -4.5992     2.0580 H       
  46 H46            4.8647    -4.2331    -1.2415 H       
  47 H47            3.3379    -4.6273    -2.0676 H       
  48 H48            2.3424    -2.5128    -1.2788 H       
  49 H49            3.8509    -2.1850    -2.1672 H       
  50 H50           -5.0564     3.6996     1.6549 H       
  51 H51           -4.9794     3.9498    -0.1061 H       
  52 H52           -6.6760     5.4305     0.9597 H       
  53 H53           -7.4258     4.2855    -0.1789 H       
  54 H54           -7.3106     4.0013     2.7530 H       
  55 H55           -8.6679     2.0691     2.4592 H       
  56 H56           -8.5909     2.3193     0.6982 H       
  57 H57           -6.9712     0.5883     1.3935 H       
  58 H58           -6.2214     1.7334     2.5321 H       
@<TRIPOS>BOND
   1    1    2 ar
   2    1    6 ar
   3    2    3 ar
   4    2   15 1
   5    3    4 ar
   6    4    5 ar
   7    4    7 1
   8    5    6 ar
   9    5    9 1
  10    6   33 1
  11    7    8 1
  12    7   14 1
  13    8    9 ar
  14    8   10 ar
  15    9   13 ar
  16   10   11 ar
  17   10   34 1
  18   11   12 ar
  19   12   13 ar
  20   12   35 1
  21   13   36 1
  22   14   23 1
  23   14   27 1
  24   14   37 1
  25   15   16 1
  26   15   38 1
  27   16   17 ar
  28   16   21 ar
  29   17   18 ar
  30   18   19 ar
  31   18   39 1
  32   19   20 ar
  33   19   22 1
  34   20   21 ar
  35   20   40 1
  36   21   41 1
  37   22   28 1
  38   22   32 1
  39   23   24 1
  40   23   42 1
  41   23   43 1
  42   24   25 1
  43   24   44 1
  44   24   45 1
  45   25   26 1
  46   26   27 1
  47   26   46 1
  48   26   47 1
  49   27   48 1
  50   27   49 1
  51   28   29 1
  52   28   50 1
  53   28   51 1
  54   29   30 1
  55   29   52 1
  56   29   53 1
  57   30   31 1
  58   30   54 1
  59   31   32 1
  60   31   55 1
  61   31   56 1
  62   32   57 1
  63   32   58 1

#	End of record

