#	Name: ASD03330947
#	Creating user name:	WinNT
#	Creation time:	15. 06. 2019 20:38

#	Modifying user name:	WinNT
#	Modification time:	15. 06. 2019 20:38

#	Program:	/corina/corina34_cracker 3.40 0067  02.08.2006

@<TRIPOS>MOLECULE
ASD03330947
  74   77    0    0    0
SMALL
NO_CHARGES


@<TRIPOS>ATOM
   1 N1             0.0589     1.1523    -0.7708 N.pl3   
   2 C2             0.0631    -0.1804    -0.5018 C.2     
   3 C3             1.2840    -1.0129    -0.2094 C.3     
   4 N4             2.1175    -0.3148     0.7819 N.3     
   5 C5             3.0696     0.5882     0.1324 C.3     
   6 C6             2.4727     1.1899    -1.1366 C.3     
   7 C7             1.2376     2.0233    -0.7840 C.3     
   8 C8            -1.2341     1.5169    -1.0098 C.2     
   9 N9            -1.9991     0.4589    -0.8765 N.2     
  10 C10           -1.2292    -0.6054    -0.5602 C.2     
  11 C11           -1.7032    -1.9801    -0.3216 C.2     
  12 O12           -0.9085    -2.8576    -0.0428 O.2     
  13 N13           -3.0174    -2.2651    -0.4123 N.am    
  14 C14            2.8109    -1.2720     1.6543 C.3     
  15 C15           -4.7936    -3.8458    -0.8978 C.2     
  16 C16           -3.4886    -3.6318    -0.1751 C.3     
  17 C17           -3.6954    -3.8467     1.3256 C.3     
  18 C18           -4.7915    -2.9055     1.8292 C.3     
  19 O19           -5.4282    -2.8931    -1.2983 O.2     
  20 C20           -4.1115    -5.2968     1.5805 C.3     
  21 C21           -2.3901    -3.5527     2.0676 C.3     
  22 N22           -5.2554    -5.0959    -1.0990 N.am    
  23 C23           -6.5617    -5.3016    -1.7294 C.3     
  24 C24           -7.1269    -6.6573    -1.3010 C.3     
  25 C25           -8.4912    -6.8721    -1.9594 C.3     
  26 C26           -8.3335    -6.8430    -3.4810 C.3     
  27 C27           -7.7683    -5.4873    -3.9093 C.3     
  28 C28           -6.4040    -5.2725    -3.2509 C.3     
  29 O29           -9.6077    -7.0437    -4.0958 O.3     
  30 C30           -1.6964     2.8774    -1.3601 C.ar    
  31 C31           -2.5962     3.0635    -2.4130 C.ar    
  32 C32           -3.0243     4.3378    -2.7345 C.ar    
  33 C33           -2.5639     5.4264    -2.0165 C.ar    
  34 C34           -1.6720     5.2481    -0.9726 C.ar    
  35 C35           -1.2407     3.9799    -0.6373 C.ar    
  36 F36           -3.0462     2.0007    -3.1152 F       
  37 Cl37          -1.0996     6.6218    -0.0788 Cl      
  38 H38            0.9784    -1.9807     0.1883 H       
  39 H39            1.8541    -1.1585    -1.1270 H       
  40 H40            3.3287     1.3915     0.8221 H       
  41 H41            3.9717     0.0330    -0.1245 H       
  42 H42            3.2140     1.8269    -1.6190 H       
  43 H43            2.1866     0.3885    -1.8178 H       
  44 H44            1.1027     2.8079    -1.5285 H       
  45 H45            1.3700     2.4723     0.2004 H       
  46 H46           -3.6512    -1.5653    -0.6347 H       
  47 H47            3.3962    -1.9608     1.0452 H       
  48 H48            3.4734    -0.7327     2.3312 H       
  49 H49            2.0775    -1.8327     2.2338 H       
  50 H50           -2.7479    -4.3409    -0.5450 H       
  51 H51           -5.7215    -3.1150     1.3006 H       
  52 H52           -4.9389    -3.0586     2.8983 H       
  53 H53           -4.4951    -1.8725     1.6476 H       
  54 H54           -3.3208    -5.9665     1.2424 H       
  55 H55           -4.2808    -5.4440     2.6472 H       
  56 H56           -5.0293    -5.5130     1.0337 H       
  57 H57           -2.0937    -2.5196     1.8859 H       
  58 H58           -2.5375    -3.7058     3.1367 H       
  59 H59           -1.6092    -4.2232     1.7088 H       
  60 H60           -4.7228    -5.8594    -0.8264 H       
  61 H61           -7.2434    -4.5095    -1.4195 H       
  62 H62           -6.4452    -7.4494    -1.6109 H       
  63 H63           -7.2392    -6.6781    -0.2170 H       
  64 H64           -8.8938    -7.8380    -1.6542 H       
  65 H65           -9.1729    -6.0800    -1.6495 H       
  66 H66           -7.6518    -7.6351    -3.7908 H       
  67 H67           -7.6560    -5.4665    -4.9933 H       
  68 H68           -8.4500    -4.6952    -3.5994 H       
  69 H69           -6.0014    -4.3066    -3.5561 H       
  70 H70           -5.7223    -6.0646    -3.5608 H       
  71 H71           -9.5834    -7.0372    -5.0625 H       
  72 H72           -3.7194     4.4837    -3.5481 H       
  73 H73           -2.9014     6.4202    -2.2715 H       
  74 H74           -0.5488     3.8423     0.1804 H       
@<TRIPOS>BOND
   1    1    2 1
   2    1    7 1
   3    1    8 1
   4    2    3 1
   5    2   10 2
   6    3    4 1
   7    3   38 1
   8    3   39 1
   9    4    5 1
  10    4   14 1
  11    5    6 1
  12    5   40 1
  13    5   41 1
  14    6    7 1
  15    6   42 1
  16    6   43 1
  17    7   44 1
  18    7   45 1
  19    8    9 2
  20    8   30 1
  21    9   10 1
  22   10   11 1
  23   11   12 2
  24   11   13 am
  25   13   16 1
  26   13   46 1
  27   14   47 1
  28   14   48 1
  29   14   49 1
  30   15   19 2
  31   15   22 am
  32   15   16 1
  33   16   17 1
  34   16   50 1
  35   17   18 1
  36   17   20 1
  37   17   21 1
  38   18   51 1
  39   18   52 1
  40   18   53 1
  41   20   54 1
  42   20   55 1
  43   20   56 1
  44   21   57 1
  45   21   58 1
  46   21   59 1
  47   22   23 1
  48   22   60 1
  49   23   24 1
  50   23   28 1
  51   23   61 1
  52   24   25 1
  53   24   62 1
  54   24   63 1
  55   25   26 1
  56   25   64 1
  57   25   65 1
  58   26   27 1
  59   26   29 1
  60   26   66 1
  61   27   28 1
  62   27   67 1
  63   27   68 1
  64   28   69 1
  65   28   70 1
  66   29   71 1
  67   30   31 ar
  68   30   35 ar
  69   31   32 ar
  70   31   36 1
  71   32   33 ar
  72   32   72 1
  73   33   34 ar
  74   33   73 1
  75   34   35 ar
  76   34   37 1
  77   35   74 1

#	End of record

