#	Name: ASD03200080
#	Creating user name:	WinNT
#	Creation time:	15. 06. 2019 20:34

#	Modifying user name:	WinNT
#	Modification time:	15. 06. 2019 20:34

#	Program:	/corina/corina34_cracker 3.40 0067  02.08.2006

@<TRIPOS>MOLECULE
ASD03200080
  43   45    0    0    0
SMALL
NO_CHARGES


@<TRIPOS>ATOM
   1 C1            -0.0188     1.5336     0.0105 C.3     
   2 C2             0.0021    -0.0041     0.0020 C.3     
   3 C3            -1.7345     2.4484     1.6573 C.2     
   4 C4            -0.6424     1.4391     1.4130 C.3     
   5 C5            -1.1656     0.0529     1.0011 C.3     
   6 C6            -2.2697     5.3063     3.6595 C.3     
   7 C7            -2.4731     4.7014     2.2668 C.3     
   8 C8            -0.0163     4.1085     2.1913 C.3     
   9 C9             0.1596     4.7201     3.5847 C.3     
  10 C10           -0.8466     5.8585     3.7685 C.3     
  11 C11           -0.6248     6.2952     7.5123 C.ar    
  12 C12           -0.8022     5.7211     6.2667 C.ar    
  13 C13           -0.6537     6.4849     5.1255 C.ar    
  14 C14           -0.3038     7.6356     7.6188 C.ar    
  15 C15           -0.1542     8.4039     6.4802 C.ar    
  16 C16           -0.3263     7.8292     5.2296 C.ar    
  17 O17           -2.8967     2.1288     1.5231 O.2     
  18 N18           -1.4196     3.7062     2.0250 N.am    
  19 O19           -0.1797     8.5828     4.1082 O.3     
  20 C20            0.1524     9.9606     4.2913 C.3     
  21 H21            0.9739     1.9838     0.0034 H       
  22 H22           -0.6847     1.9653    -0.7367 H       
  23 H23           -0.2676    -0.4391    -0.9603 H       
  24 H24            0.9145    -0.4307     0.4186 H       
  25 H25            0.0922     1.4071     2.2177 H       
  26 H26           -2.1461     0.0799     0.5257 H       
  27 H27           -1.0987    -0.6922     1.7938 H       
  28 H28           -2.9859     6.1134     3.8137 H       
  29 H29           -2.4207     4.5364     4.4161 H       
  30 H30           -3.4495     4.2194     2.2169 H       
  31 H31           -2.4126     5.4877     1.5144 H       
  32 H32            0.2446     4.8465     1.4327 H       
  33 H33            0.6286     3.2357     2.0889 H       
  34 H34           -0.0137     3.9556     4.3421 H       
  35 H35            1.1726     5.1094     3.6860 H       
  36 H36           -0.6887     6.6107     2.9956 H       
  37 H37           -0.7417     5.6964     8.4034 H       
  38 H38           -1.0566     4.6746     6.1863 H       
  39 H39           -0.1699     8.0826     8.5928 H       
  40 H40            0.1007     9.4501     6.5638 H       
  41 H41           -0.6301    10.4489     4.8720 H       
  42 H42            1.1011    10.0382     4.8224 H       
  43 H43            0.2396    10.4456     3.3190 H       
@<TRIPOS>BOND
   1    1    2 1
   2    1   21 1
   3    1   22 1
   4    1    4 1
   5    2   23 1
   6    2   24 1
   7    2    5 1
   8    3    4 1
   9    3   17 2
  10    3   18 am
  11    4    5 1
  12    4   25 1
  13    5   26 1
  14    5   27 1
  15    6    7 1
  16    6   28 1
  17    6   29 1
  18    6   10 1
  19    7   18 1
  20    7   30 1
  21    7   31 1
  22    8   18 1
  23    8   32 1
  24    8   33 1
  25    8    9 1
  26    9   34 1
  27    9   35 1
  28    9   10 1
  29   10   13 1
  30   10   36 1
  31   11   37 1
  32   11   12 ar
  33   11   14 ar
  34   12   38 1
  35   12   13 ar
  36   13   16 ar
  37   14   39 1
  38   14   15 ar
  39   15   16 ar
  40   15   40 1
  41   16   19 1
  42   19   20 1
  43   20   41 1
  44   20   42 1
  45   20   43 1

#	End of record

