#	Name: ASD02560066
#	Creating user name:	WinNT
#	Creation time:	15. 06. 2019 20:24

#	Modifying user name:	WinNT
#	Modification time:	15. 06. 2019 20:24

#	Program:	/corina/corina34_cracker 3.40 0067  02.08.2006

@<TRIPOS>MOLECULE
ASD02560066
  46   48    0    0    0
SMALL
NO_CHARGES


@<TRIPOS>ATOM
   1 C1             0.9224     1.6035    -1.0610 C.ar    
   2 C2             0.8762     0.2345    -1.1939 C.ar    
   3 C3             1.3735    -0.5821    -0.1823 C.ar    
   4 C4             1.9193    -0.0186     0.9674 C.ar    
   5 C5             1.9699     1.3495     1.1083 C.ar    
   6 C6             1.4709     2.1745     0.0935 C.ar    
   7 C7             1.5227     3.6362     0.2396 C.2     
   8 C8             0.2859    -0.3814    -2.4362 C.3     
   9 C9             2.4553    -0.9078     2.0597 C.3     
  10 N10            1.3243    -1.9679    -0.3209 N.pl3   
  11 C11            2.4898    -2.6836    -0.5494 C.ar    
  12 C12            3.7148    -2.0239    -0.6663 C.ar    
  13 C13            4.8501    -2.7777    -0.8939 C.ar    
  14 N14            4.7445    -4.0944    -0.9940 N.ar    
  15 C15            3.5686    -4.6940    -0.8789 C.ar    
  16 N16            2.4579    -4.0083    -0.6551 N.ar    
  17 N17            3.5000    -6.0733    -0.9902 N.pl3   
  18 C18            4.6369    -6.8020    -1.3349 C.ar    
  19 C19            5.5859    -6.2458    -2.1871 C.ar    
  20 C20            6.7101    -6.9627    -2.5296 C.ar    
  21 C21            6.8977    -8.2510    -2.0202 C.ar    
  22 C22            5.9422    -8.8067    -1.1643 C.ar    
  23 C23            4.8231    -8.0819    -0.8214 C.ar    
  24 C24            1.0410     4.4301    -0.7403 C.2     
  25 C25            8.0656    -8.9999    -2.3747 C.1     
  26 N26            8.9922    -9.5940    -2.6559 N.1     
  27 C27            1.0915     5.8541    -0.5979 C.1     
  28 N28            1.1316     6.9837    -0.4850 N.1     
  29 H29            0.5400     2.2364    -1.8481 H       
  30 H30            2.3932     1.7859     2.0009 H       
  31 H31            1.9463     4.0751     1.1309 H       
  32 H32            1.0694    -0.5178    -3.1816 H       
  33 H33           -0.1529    -1.3481    -2.1892 H       
  34 H34           -0.4857     0.2763    -2.8363 H       
  35 H35            3.4815    -1.1916     1.8264 H       
  36 H36            2.4334    -0.3714     3.0084 H       
  37 H37            1.8387    -1.8035     2.1344 H       
  38 H38            0.4748    -2.4319    -0.2574 H       
  39 H39            3.7736    -0.9489    -0.5810 H       
  40 H40            5.8133    -2.2985    -0.9896 H       
  41 H41            2.6607    -6.5319    -0.8283 H       
  42 H42            5.4402    -5.2506    -2.5806 H       
  43 H43            7.4461    -6.5306    -3.1914 H       
  44 H44            6.0840    -9.8017    -0.7689 H       
  45 H45            4.0847    -8.5104    -0.1600 H       
  46 H46            0.6175     3.9912    -1.6316 H       
@<TRIPOS>BOND
   1    1    2 ar
   2    1    6 ar
   3    1   29 1
   4    2    3 ar
   5    2    8 1
   6    3    4 ar
   7    3   10 1
   8    4    5 ar
   9    4    9 1
  10    5    6 ar
  11    5   30 1
  12    6    7 1
  13    7   24 2
  14    7   31 1
  15    8   32 1
  16    8   33 1
  17    8   34 1
  18    9   35 1
  19    9   36 1
  20    9   37 1
  21   10   11 1
  22   10   38 1
  23   11   12 ar
  24   11   16 ar
  25   12   13 ar
  26   12   39 1
  27   13   14 ar
  28   13   40 1
  29   14   15 ar
  30   15   16 ar
  31   15   17 1
  32   17   18 1
  33   17   41 1
  34   18   19 ar
  35   18   23 ar
  36   19   20 ar
  37   19   42 1
  38   20   21 ar
  39   20   43 1
  40   21   22 ar
  41   21   25 1
  42   22   23 ar
  43   22   44 1
  44   23   45 1
  45   24   27 1
  46   24   46 1
  47   25   26 3
  48   27   28 3

#	End of record

