#	Name: ASD07930749
#	Creating user name:	WinNT
#	Creation time:	15. 06. 2019 21:13

#	Modifying user name:	WinNT
#	Modification time:	15. 06. 2019 21:13

#	Program:	/corina/corina34_cracker 3.40 0067  02.08.2006

@<TRIPOS>MOLECULE
ASD07930749
  46   48    0    0    0
SMALL
NO_CHARGES


@<TRIPOS>ATOM
   1 C1            -0.0085     1.4559     0.0045 C.3     
   2 N2             0.8171    -0.4281    -2.1588 N.2     
   3 N3            -0.8712    -1.7906    -1.2900 N.pl3   
   4 C4            -0.8977    -2.8290    -0.2546 C.3     
   5 C5            -1.2113    -2.1829     1.1020 C.3     
   6 S6             0.0274    -0.8866     1.4173 S.o2    
   7 N7             0.0088    -0.0090     0.0009 N.am    
   8 C8             0.0100    -0.7343    -1.1821 C.2     
   9 C9             0.4660    -3.5196    -0.1886 C.3     
  10 O10           -0.4344     0.0223     2.4071 O.2     
  11 O11            1.3342    -1.4416     1.4768 O.2     
  12 C12           -1.9612    -3.8437    -0.5866 C.2     
  13 S13           -3.2970    -4.2059     0.4110 S.3     
  14 C14           -3.8943    -5.3955    -0.7378 C.2     
  15 C15           -3.0464    -5.4478    -1.8089 C.2     
  16 C16           -1.9869    -4.5771    -1.7064 C.2     
  17 Cl17          -0.7656    -4.4473    -2.9334 Cl      
  18 C18           -5.1067    -6.2017    -0.5734 C.2     
  19 O19           -5.7917    -6.0741     0.4244 O.2     
  20 N20           -5.4633    -7.0846    -1.5273 N.am    
  21 C21           -6.5536    -7.9270    -1.3238 C.ar    
  22 N22           -7.1754    -7.9236    -0.1545 N.ar    
  23 C23           -8.2148    -8.7083     0.0795 C.ar    
  24 C24           -8.6898    -9.5671    -0.9017 C.ar    
  25 C25           -8.0630    -9.5967    -2.1375 C.ar    
  26 C26           -6.9816    -8.7583    -2.3517 C.ar    
  27 O27           -8.8226    -8.6731     1.2920 O.3     
  28 C28           -8.2870    -7.7688     2.2602 C.3     
  29 H29            1.0147     1.8313    -0.0006 H       
  30 H30           -0.5318     1.8152    -0.8816 H       
  31 H31           -0.5214     1.8110     0.8984 H       
  32 H32            0.8044    -0.9460    -2.9789 H       
  33 H33           -1.4693    -1.8484    -2.0515 H       
  34 H34           -2.2074    -1.7411     1.0771 H       
  35 H35           -1.1627    -2.9366     1.8879 H       
  36 H36            1.2339    -2.7850     0.0536 H       
  37 H37            0.4456    -4.2911     0.5811 H       
  38 H38            0.6898    -3.9747    -1.1534 H       
  39 H39           -3.1960    -6.1043    -2.6533 H       
  40 H40           -4.9606    -7.1333    -2.3554 H       
  41 H41           -9.5382   -10.2056    -0.7044 H       
  42 H42           -8.4131   -10.2560    -2.9180 H       
  43 H43           -6.4715    -8.7569    -3.3037 H       
  44 H44           -7.2470    -8.0259     2.4612 H       
  45 H45           -8.3417    -6.7504     1.8755 H       
  46 H46           -8.8637    -7.8404     3.1823 H       
@<TRIPOS>BOND
   1    1    7 1
   2    1   29 1
   3    1   30 1
   4    1   31 1
   5    2    8 2
   6    2   32 1
   7    3    4 1
   8    3    8 1
   9    3   33 1
  10    4    5 1
  11    4    9 1
  12    4   12 1
  13    5    6 1
  14    5   34 1
  15    5   35 1
  16    6    7 am
  17    6   10 2
  18    6   11 2
  19    7    8 1
  20    9   36 1
  21    9   37 1
  22    9   38 1
  23   12   13 1
  24   12   16 2
  25   13   14 1
  26   14   15 2
  27   14   18 1
  28   15   16 1
  29   15   39 1
  30   16   17 1
  31   18   19 2
  32   18   20 am
  33   20   21 1
  34   20   40 1
  35   21   22 ar
  36   21   26 ar
  37   22   23 ar
  38   23   24 ar
  39   23   27 1
  40   24   25 ar
  41   24   41 1
  42   25   26 ar
  43   25   42 1
  44   26   43 1
  45   27   28 1
  46   28   44 1
  47   28   45 1
  48   28   46 1

#	End of record

