#	Name: ASD04230136
#	Creating user name:	WinNT
#	Creation time:	15. 06. 2019 20:48

#	Modifying user name:	WinNT
#	Modification time:	15. 06. 2019 20:48

#	Program:	/corina/corina34_cracker 3.40 0067  02.08.2006

@<TRIPOS>MOLECULE
ASD04230136
  44   47    0    0    0
SMALL
NO_CHARGES


@<TRIPOS>ATOM
   1 C1             1.5359     4.6863     1.7199 C.ar    
   2 C2             2.5438     5.3841     2.3696 C.ar    
   3 C3             3.8003     4.8590     2.4683 C.ar    
   4 C4             4.0824     3.6081     1.9005 C.ar    
   5 C5             3.0563     2.8818     1.2693 C.ar    
   6 C6             1.7831     3.4396     1.1727 C.ar    
   7 C7             5.3933     3.0678     1.9622 C.2     
   8 C8             5.6627     1.9284     1.2158 C.2     
   9 C9             4.5671     1.3877     0.3906 C.2     
  10 O10            3.2978     1.6422     0.7795 O.3     
  11 C11            6.9878     1.2871     1.2466 C.2     
  12 N12            7.2188     0.1818     0.5109 N.am    
  13 O13            7.8739     1.7548     1.9362 O.2     
  14 C14            8.5059    -0.3623     0.4514 C.ar    
  15 C15            8.6753    -1.7390     0.3692 C.ar    
  16 C16            9.9458    -2.2801     0.3108 C.ar    
  17 C17           11.0531    -1.4560     0.3337 C.ar    
  18 C18           10.8925    -0.0740     0.4161 C.ar    
  19 C19            9.6135     0.4724     0.4687 C.ar    
  20 C20           12.0824     0.8133     0.4419 C.2     
  21 O21            4.7981     0.7331    -0.6087 O.2     
  22 O22            0.7869     2.7609     0.5437 O.3     
  23 C23           12.5113     1.6207     1.4568 C.2     
  24 C24           13.0486     1.0185    -0.5827 C.2     
  25 N25           13.9025     1.8783    -0.1114 N.2     
  26 O26           13.6230     2.2227     1.0128 O.3     
  27 C27           13.0765     0.3689    -1.9422 C.3     
  28 C28           11.8638     1.7988     2.8059 C.3     
  29 H29            0.5487     5.1179     1.6444 H       
  30 H30            2.3327     6.3514     2.8010 H       
  31 H31            4.5762     5.4066     2.9826 H       
  32 H32            6.1575     3.5287     2.5705 H       
  33 H33            6.4924    -0.2364     0.0226 H       
  34 H34            7.8122    -2.3878     0.3513 H       
  35 H35           10.0726    -3.3507     0.2473 H       
  36 H36           12.0443    -1.8825     0.2883 H       
  37 H37            9.4841     1.5428     0.5322 H       
  38 H38            0.2742     2.1848     1.1271 H       
  39 H39           12.5176     0.9819    -2.6493 H       
  40 H40           14.1089     0.2755    -2.2792 H       
  41 H41           12.6232    -0.6205    -1.8816 H       
  42 H42           12.2746     1.0705     3.5051 H       
  43 H43           12.0604     2.8061     3.1732 H       
  44 H44           10.7880     1.6487     2.7152 H       
@<TRIPOS>BOND
   1    1    2 ar
   2    1    6 ar
   3    1   29 1
   4    2    3 ar
   5    2   30 1
   6    3    4 ar
   7    3   31 1
   8    4    5 ar
   9    4    7 1
  10    5    6 ar
  11    5   10 1
  12    6   22 1
  13    7    8 2
  14    7   32 1
  15    8    9 1
  16    8   11 1
  17    9   10 1
  18    9   21 2
  19   11   12 am
  20   11   13 2
  21   12   14 1
  22   12   33 1
  23   14   15 ar
  24   14   19 ar
  25   15   16 ar
  26   15   34 1
  27   16   17 ar
  28   16   35 1
  29   17   18 ar
  30   17   36 1
  31   18   19 ar
  32   18   20 1
  33   19   37 1
  34   20   24 1
  35   20   23 2
  36   22   38 1
  37   23   28 1
  38   23   26 1
  39   24   25 2
  40   24   27 1
  41   25   26 1
  42   27   39 1
  43   27   40 1
  44   27   41 1
  45   28   42 1
  46   28   43 1
  47   28   44 1

#	End of record

