#	Name: ASD00840004
#	Creating user name:	WinNT
#	Creation time:	15. 06. 2019 18:37

#	Modifying user name:	WinNT
#	Modification time:	15. 06. 2019 18:37

#	Program:	/corina/corina34_cracker 3.40 0067  02.08.2006

@<TRIPOS>MOLECULE
ASD00840004
  22   23    0    0    0
SMALL
NO_CHARGES


@<TRIPOS>ATOM
   1 C1            -0.0162     1.3462     0.0094 C.2     
   2 N2             0.0021    -0.0041     0.0020 N.pl3   
   3 C3             1.3150    -0.3911    -0.0126 C.2     
   4 C4             2.0532     0.7352    -0.0136 C.2     
   5 N5             1.2140     1.7814     0.0000 N.2     
   6 C6            -1.1652    -0.8893     0.0088 C.3     
   7 C7            -1.5791    -1.1857    -1.4096 C.ar    
   8 C8            -1.0455    -2.2757    -2.0716 C.ar    
   9 C9            -1.4247    -2.5480    -3.3725 C.ar    
  10 C10           -2.3387    -1.7296    -4.0121 C.ar    
  11 C11           -2.8724    -0.6390    -3.3489 C.ar    
  12 C12           -2.4967    -0.3709    -2.0461 C.ar    
  13 Cl13          -2.8151    -2.0707    -5.6462 Cl      
  14 H14           -0.9023     1.9637     0.0171 H       
  15 H15            1.6872    -1.4049    -0.0211 H       
  16 H16            3.1319     0.7869    -0.0231 H       
  17 H17           -0.9120    -1.8206     0.5156 H       
  18 H18           -1.9875    -0.4024     0.5331 H       
  19 H19           -0.3318    -2.9142    -1.5724 H       
  20 H20           -1.0075    -3.3993    -3.8898 H       
  21 H21           -3.5859     0.0002    -3.8477 H       
  22 H22           -2.9166     0.4779    -1.5269 H       
@<TRIPOS>BOND
   1    1    2 1
   2    1    5 2
   3    1   14 1
   4    2    3 1
   5    2    6 1
   6    3    4 2
   7    3   15 1
   8    4    5 1
   9    4   16 1
  10    6    7 1
  11    6   17 1
  12    6   18 1
  13    7    8 ar
  14    7   12 ar
  15    8    9 ar
  16    8   19 1
  17    9   10 ar
  18    9   20 1
  19   10   11 ar
  20   10   13 1
  21   11   12 ar
  22   11   21 1
  23   12   22 1

#	End of record

