#	Name: ASD02198231
#	Creating user name:	WinNT
#	Creation time:	15. 06. 2019 20:19

#	Modifying user name:	WinNT
#	Modification time:	15. 06. 2019 20:19

#	Program:	/corina/corina34_cracker 3.40 0067  02.08.2006

@<TRIPOS>MOLECULE
ASD02198231
  45   48    0    0    0
SMALL
NO_CHARGES


@<TRIPOS>ATOM
   1 C1            -0.0166     1.3753     0.0096 C.2     
   2 C2             0.0021    -0.0041     0.0020 C.2     
   3 C3            -1.1878    -0.8008     0.0087 C.1     
   4 S4             1.5675     2.0054    -0.0021 S.3     
   5 C5             2.2772     0.3990    -0.0175 C.2     
   6 C6             1.2824    -0.5520    -0.0131 C.2     
   7 C7             3.6579     0.1249    -0.0326 C.2     
   8 C8             4.6308     1.2351    -0.0359 C.2     
   9 O9             4.0505    -1.0301    -0.0430 O.2     
  10 N10            1.5294    -1.9154    -0.0233 N.pl3   
  11 N11           -1.1593     2.1393     0.0193 N.pl3   
  12 N12           -2.1317    -1.4328     0.0139 N.1     
  13 C13           -1.0630     3.6011     0.0268 C.3     
  14 C14           -2.3387     4.2164    -0.5746 C.3     
  15 O15            4.3522     2.5521    -0.0253 O.3     
  16 N16            5.3579     3.2225    -0.0308 N.2     
  17 C17            6.4373     2.4803    -0.0455 C.2     
  18 C18            5.9935     1.1303    -0.0443 C.2     
  19 C19            7.8435     2.9548    -0.0560 C.ar    
  20 C20            8.1208     4.3216    -0.0498 C.ar    
  21 C21            8.8909     2.0364    -0.0662 C.ar    
  22 C22           10.1969     2.4823    -0.0754 C.ar    
  23 C23           10.4678     3.8400    -0.0741 C.ar    
  24 C24            9.4313     4.7574    -0.0591 C.ar    
  25 Cl25          12.1130     4.3938    -0.0852 Cl      
  26 C26           -2.9730     5.0847     0.5316 C.3     
  27 C27           -1.7895     5.4291     1.4695 C.3     
  28 C28           -0.9666     4.1169     1.4775 C.3     
  29 Cl29           6.8215     5.4727    -0.0310 Cl      
  30 H30            2.4424    -2.2428    -0.0341 H       
  31 H31            0.7893    -2.5424    -0.0195 H       
  32 H32           -2.0294     1.7105     0.0212 H       
  33 H33           -0.1902     3.9204    -0.5426 H       
  34 H34           -2.0849     4.8351    -1.4354 H       
  35 H35           -3.0294     3.4274    -0.8720 H       
  36 H36            6.5927     0.2318    -0.0539 H       
  37 H37            8.6812     0.9770    -0.0665 H       
  38 H38           11.0093     1.7707    -0.0833 H       
  39 H39            9.6476     5.8155    -0.0585 H       
  40 H40           -3.3994     5.9931     0.1061 H       
  41 H41           -3.7346     4.5204     1.0698 H       
  42 H42           -1.2010     6.2516     1.0629 H       
  43 H43           -2.1471     5.6669     2.4714 H       
  44 H44           -1.4041     3.3964     2.1684 H       
  45 H45            0.0713     4.3191     1.7422 H       
@<TRIPOS>BOND
   1    1    2 2
   2    1    4 1
   3    1   11 1
   4    2    3 1
   5    2    6 1
   6    3   12 3
   7    4    5 1
   8    5    6 2
   9    5    7 1
  10    6   10 1
  11    7    8 1
  12    7    9 2
  13    8   15 1
  14    8   18 2
  15   10   30 1
  16   10   31 1
  17   11   13 1
  18   11   32 1
  19   13   14 1
  20   13   28 1
  21   13   33 1
  22   14   26 1
  23   14   34 1
  24   14   35 1
  25   15   16 1
  26   16   17 2
  27   17   18 1
  28   17   19 1
  29   18   36 1
  30   19   20 ar
  31   19   21 ar
  32   20   24 ar
  33   20   29 1
  34   21   22 ar
  35   21   37 1
  36   22   23 ar
  37   22   38 1
  38   23   24 ar
  39   23   25 1
  40   24   39 1
  41   26   27 1
  42   26   40 1
  43   26   41 1
  44   27   28 1
  45   27   42 1
  46   27   43 1
  47   28   44 1
  48   28   45 1

#	End of record

