#	Name: ASD09116266
#	Creating user name:	WinNT
#	Creation time:	15. 06. 2019 21:21

#	Modifying user name:	WinNT
#	Modification time:	15. 06. 2019 21:21

#	Program:	/corina/corina34_cracker 3.40 0067  02.08.2006

@<TRIPOS>MOLECULE
ASD09116266
  73   78    0    0    0
SMALL
NO_CHARGES


@<TRIPOS>ATOM
   1 N1            -0.0567     1.5274    -0.5267 N.pl3   
   2 N2            -0.0776     0.2483    -1.1058 N.2     
   3 C3             1.2415     1.9097    -0.4912 C.2     
   4 N4             1.9638     0.9391    -1.0091 N.2     
   5 C5             1.1651    -0.0674    -1.3816 C.2     
   6 N6             1.7235     3.1085     0.0019 N.pl3   
   7 C7             3.1017     3.3275     0.0825 C.ar    
   8 C8             3.6092     4.6161    -0.0249 C.ar    
   9 C9             4.9713     4.8290     0.0557 C.ar    
  10 C10            5.8298     3.7611     0.2426 C.ar    
  11 C11            5.3279     2.4769     0.3495 C.ar    
  12 C12            3.9664     2.2576     0.2760 C.ar    
  13 C13           -1.1572     2.2619    -0.0814 C.ar    
  14 N14           -1.0022     3.1845     0.8564 N.ar    
  15 N15           -1.9837     3.8810     1.3081 N.ar    
  16 C16           -3.2174     3.7142     0.8592 C.ar    
  17 C17           -3.4730     2.7774    -0.1463 C.ar    
  18 C18           -2.4211     2.0278    -0.6290 C.ar    
  19 C19           -4.3587     4.4768     1.4160 C.ar    
  20 C20           -5.5071     3.7850     1.8042 C.ar    
  21 C21           -5.5352     2.2848     1.7001 C.3     
  22 C22           -5.7435     1.8305     0.2579 C.3     
  23 C23           -4.8628     2.6344    -0.6949 C.3     
  24 C24           -4.3005     5.8595     1.5507 C.ar    
  25 C25           -5.3907     6.5441     2.0521 C.ar    
  26 C26           -6.5346     5.8570     2.4157 C.ar    
  27 C27           -6.5933     4.4797     2.2915 C.ar    
  28 N28            1.5862    -1.2604    -1.9681 N.pl3   
  29 C29            7.3156     3.9972     0.3295 C.3     
  30 N30            7.6934     4.2296     1.7300 N.3     
  31 C31            9.1544     4.2282     1.8885 C.3     
  32 C32            9.5074     4.5517     3.3422 C.3     
  33 N33            8.8834     3.5587     4.2278 N.3     
  34 C34            7.4224     3.5602     4.0692 C.3     
  35 C35            7.0694     3.2367     2.6155 C.3     
  36 C36            9.2611     3.7912     5.6282 C.3     
  37 C37            8.4973     2.8199     6.5305 C.3     
  38 C38           10.7653     3.5663     5.7948 C.3     
  39 H39            1.1052     3.7973     0.2918 H       
  40 H40            2.9394     5.4505    -0.1716 H       
  41 H41            5.3666     5.8306    -0.0278 H       
  42 H42            6.0011     1.6450     0.4950 H       
  43 H43            3.5750     1.2545     0.3599 H       
  44 H44           -2.5702     1.2818    -1.3956 H       
  45 H45           -4.5903     1.8841     2.0672 H       
  46 H46           -6.3479     1.8997     2.3161 H       
  47 H47           -5.4908     0.7735     0.1746 H       
  48 H48           -6.7893     1.9712    -0.0151 H       
  49 H49           -5.2967     3.6245    -0.8347 H       
  50 H50           -4.8176     2.1247    -1.6573 H       
  51 H51           -3.4075     6.3956     1.2651 H       
  52 H52           -5.3495     7.6178     2.1607 H       
  53 H53           -7.3870     6.3983     2.7991 H       
  54 H54           -7.4900     3.9494     2.5765 H       
  55 H55            2.5293    -1.4114    -2.1371 H       
  56 H56            0.9359    -1.9393    -2.2071 H       
  57 H57            7.8452     3.1231    -0.0494 H       
  58 H58            7.5805     4.8696    -0.2678 H       
  59 H59            9.5473     3.2451     1.6291 H       
  60 H60            9.5922     4.9801     1.2320 H       
  61 H61           10.5896     4.5227     3.4687 H       
  62 H62            9.1381     5.5460     3.5934 H       
  63 H63            6.9846     2.8083     4.7257 H       
  64 H64            7.0295     4.5432     4.3287 H       
  65 H65            5.9872     3.2657     2.4890 H       
  66 H66            7.4387     2.2424     2.3643 H       
  67 H67            9.0140     4.8158     5.9059 H       
  68 H68            8.7444     1.7953     6.2528 H       
  69 H69            8.7776     2.9924     7.5696 H       
  70 H70            7.4257     2.9801     6.4118 H       
  71 H71           11.3095     4.2582     5.1520 H       
  72 H72           11.0456     3.7388     6.8339 H       
  73 H73           11.0125     2.5416     5.5171 H       
@<TRIPOS>BOND
   1    1    2 1
   2    1    3 1
   3    1   13 1
   4    2    5 2
   5    3    4 2
   6    3    6 1
   7    4    5 1
   8    5   28 1
   9    6    7 1
  10    6   39 1
  11    7    8 ar
  12    7   12 ar
  13    8    9 ar
  14    8   40 1
  15    9   10 ar
  16    9   41 1
  17   10   11 ar
  18   10   29 1
  19   11   12 ar
  20   11   42 1
  21   12   43 1
  22   13   14 ar
  23   13   18 ar
  24   14   15 ar
  25   15   16 ar
  26   16   17 ar
  27   16   19 1
  28   17   18 ar
  29   17   23 1
  30   18   44 1
  31   19   20 ar
  32   19   24 ar
  33   20   21 1
  34   20   27 ar
  35   21   22 1
  36   21   45 1
  37   21   46 1
  38   22   23 1
  39   22   47 1
  40   22   48 1
  41   23   49 1
  42   23   50 1
  43   24   25 ar
  44   24   51 1
  45   25   26 ar
  46   25   52 1
  47   26   27 ar
  48   26   53 1
  49   27   54 1
  50   28   55 1
  51   28   56 1
  52   29   30 1
  53   29   57 1
  54   29   58 1
  55   30   31 1
  56   30   35 1
  57   31   32 1
  58   31   59 1
  59   31   60 1
  60   32   33 1
  61   32   61 1
  62   32   62 1
  63   33   34 1
  64   33   36 1
  65   34   35 1
  66   34   63 1
  67   34   64 1
  68   35   65 1
  69   35   66 1
  70   36   37 1
  71   36   38 1
  72   36   67 1
  73   37   68 1
  74   37   69 1
  75   37   70 1
  76   38   71 1
  77   38   72 1
  78   38   73 1

#	End of record

