#	Name: ASD01811572
#	Creating user name:	WinNT
#	Creation time:	15. 06. 2019 19:27

#	Modifying user name:	WinNT
#	Modification time:	15. 06. 2019 19:27

#	Program:	/corina/corina34_cracker 3.40 0067  02.08.2006

@<TRIPOS>MOLECULE
ASD01811572
  39   41    0    0    0
SMALL
NO_CHARGES


@<TRIPOS>ATOM
   1 C1            -0.1155     1.4622     0.2148 C.2     
   2 C2            -0.0458    -0.0093     0.1021 C.ar    
   3 C3             1.1216    -0.6217    -0.3614 C.ar    
   4 C4             1.1881    -1.9964    -0.4667 C.ar    
   5 C5             0.1032    -2.7755    -0.1153 C.ar    
   6 C6            -1.0696    -2.1767     0.3489 C.ar    
   7 C7            -1.1421    -0.7903     0.4633 C.ar    
   8 O8             0.8689     2.1362    -0.0136 O.2     
   9 O9            -1.2723     2.0568     0.5655 O.3     
  10 C10           -2.2307    -3.0131     0.7238 C.2     
  11 N11           -3.4798    -2.5529     1.0373 N.pl3   
  12 C12           -4.2409    -3.6427     1.3174 C.2     
  13 C13           -3.4500    -4.7344     1.1729 C.2     
  14 N14           -2.2384    -4.3282     0.8068 N.2     
  15 C15           -5.6917    -3.7177     1.7177 C.3     
  16 C16           -3.9507    -6.1396     1.4069 C.3     
  17 C17           -5.2734    -6.0420     2.1808 C.3     
  18 O18           -6.1250    -5.0760     1.5593 O.3     
  19 C19           -5.9656    -7.4064     2.1801 C.3     
  20 C20            0.1852    -4.2756    -0.2336 C.3     
  21 C21            2.3102     0.2205    -0.7475 C.3     
  22 H22            2.0925    -2.4648    -0.8258 H       
  23 H23           -2.0453    -0.3225     0.8263 H       
  24 H24           -1.2691     3.0218     0.6262 H       
  25 H25           -3.7671    -1.6266     1.0560 H       
  26 H26           -5.8028    -3.4145     2.7587 H       
  27 H27           -6.2848    -3.0647     1.0776 H       
  28 H28           -4.1179    -6.6361     0.4510 H       
  29 H29           -3.2208    -6.6991     1.9919 H       
  30 H30           -5.0709    -5.7392     3.2082 H       
  31 H31           -5.3185    -8.1424     2.6572 H       
  32 H32           -6.9046    -7.3378     2.7293 H       
  33 H33           -6.1669    -7.7112     1.1531 H       
  34 H34            0.4435    -4.7029     0.7353 H       
  35 H35           -0.7786    -4.6677    -0.5584 H       
  36 H36            0.9500    -4.5412    -0.9634 H       
  37 H37            2.8818     0.4734     0.1455 H       
  38 H38            2.9425    -0.3382    -1.4376 H       
  39 H39            1.9659     1.1354    -1.2298 H       
@<TRIPOS>BOND
   1    1    2 1
   2    1    8 2
   3    1    9 1
   4    2    3 ar
   5    2    7 ar
   6    3    4 ar
   7    3   21 1
   8    4    5 ar
   9    4   22 1
  10    5    6 ar
  11    5   20 1
  12    6    7 ar
  13    6   10 1
  14    7   23 1
  15    9   24 1
  16   10   11 1
  17   10   14 2
  18   11   12 1
  19   11   25 1
  20   12   13 2
  21   12   15 1
  22   13   14 1
  23   13   16 1
  24   15   18 1
  25   15   26 1
  26   15   27 1
  27   16   17 1
  28   16   28 1
  29   16   29 1
  30   17   18 1
  31   17   19 1
  32   17   30 1
  33   19   31 1
  34   19   32 1
  35   19   33 1
  36   20   34 1
  37   20   35 1
  38   20   36 1
  39   21   37 1
  40   21   38 1
  41   21   39 1

#	End of record

