#	Name: ASD01912214
#	Creating user name:	WinNT
#	Creation time:	15. 06. 2019 19:59

#	Modifying user name:	WinNT
#	Modification time:	15. 06. 2019 19:59

#	Program:	/corina/corina34_cracker 3.40 0067  02.08.2006

@<TRIPOS>MOLECULE
ASD01912214
  44   46    0    0    0
SMALL
NO_CHARGES


@<TRIPOS>ATOM
   1 C1            -0.1284     1.6219    -1.1895 C.ar    
   2 C2            -0.1101     0.2361    -1.3719 C.ar    
   3 C3             1.1014    -0.3977    -1.5780 C.ar    
   4 C4             2.2579     0.3709    -1.5958 C.ar    
   5 C5             2.1685     1.7382    -1.4085 C.ar    
   6 N6             1.0032     2.3202    -1.2138 N.ar    
   7 C7             3.4223     2.5741    -1.4275 C.3     
   8 C8            -1.3750     2.2952    -0.9808 C.1     
   9 C9            -2.3969     2.8471    -0.8097 C.1     
  10 C10           -3.6435     3.5203    -0.6010 C.2     
  11 N11           -3.6029     7.1935     0.9992 N.am    
  12 C12           -4.8462     6.4151     1.0696 C.3     
  13 C13           -4.9729     5.5707    -0.2047 C.3     
  14 C14           -3.6663     4.8409    -0.4266 C.2     
  15 C15           -2.3863     5.6473    -0.4462 C.3     
  16 C16           -2.3245     6.4898     0.8342 C.3     
  17 C17           -3.6352     8.5385     1.0796 C.2     
  18 C18           -2.3730     9.3060     1.1388 C.ar    
  19 C19           -2.2229    10.4679     0.3800 C.ar    
  20 C20           -1.0427    11.1797     0.4402 C.ar    
  21 C21           -0.0090    10.7440     1.2501 C.ar    
  22 C22           -0.1513     9.5931     2.0049 C.ar    
  23 C23           -1.3284     8.8752     1.9582 C.ar    
  24 O24           -4.7021     9.1204     1.1035 O.2     
  25 H25           -1.0288    -0.3313    -1.3518 H       
  26 H26            1.1473    -1.4671    -1.7217 H       
  27 H27            3.2192    -0.0953    -1.7542 H       
  28 H28            3.6212     2.9077    -2.4459 H       
  29 H29            3.2907     3.4412    -0.7803 H       
  30 H30            4.2619     1.9779    -1.0699 H       
  31 H31           -4.5651     2.9575    -0.5850 H       
  32 H32           -4.8186     5.7604     1.9406 H       
  33 H33           -5.6972     7.0920     1.1456 H       
  34 H34           -5.7812     4.8488    -0.0878 H       
  35 H35           -5.1800     6.2195    -1.0558 H       
  36 H36           -1.5294     4.9748    -0.4847 H       
  37 H37           -2.3786     6.3025    -1.3173 H       
  38 H38           -1.5153     7.2158     0.7552 H       
  39 H39           -2.1521     5.8393     1.6917 H       
  40 H40           -3.0288    10.8086    -0.2531 H       
  41 H41           -0.9253    12.0788    -0.1464 H       
  42 H42            0.9132    11.3045     1.2931 H       
  43 H43            0.6594     9.2584     2.6351 H       
  44 H44           -1.4399     7.9795     2.5512 H       
@<TRIPOS>BOND
   1    1    2 ar
   2    1    6 ar
   3    1    8 1
   4    2    3 ar
   5    2   25 1
   6    3    4 ar
   7    3   26 1
   8    4    5 ar
   9    4   27 1
  10    5    6 ar
  11    5    7 1
  12    7   28 1
  13    7   29 1
  14    7   30 1
  15    8    9 3
  16    9   10 1
  17   10   14 2
  18   10   31 1
  19   11   12 1
  20   11   16 1
  21   11   17 am
  22   12   13 1
  23   12   32 1
  24   12   33 1
  25   13   14 1
  26   13   34 1
  27   13   35 1
  28   14   15 1
  29   15   16 1
  30   15   36 1
  31   15   37 1
  32   16   38 1
  33   16   39 1
  34   17   18 1
  35   17   24 2
  36   18   19 ar
  37   18   23 ar
  38   19   20 ar
  39   19   40 1
  40   20   21 ar
  41   20   41 1
  42   21   22 ar
  43   21   42 1
  44   22   23 ar
  45   22   43 1
  46   23   44 1

#	End of record

