#	Name: ASD01884072
#	Creating user name:	WinNT
#	Creation time:	15. 06. 2019 19:47

#	Modifying user name:	WinNT
#	Modification time:	15. 06. 2019 19:47

#	Program:	/corina/corina34_cracker 3.40 0067  02.08.2006

@<TRIPOS>MOLECULE
ASD01884072
  55   58    0    0    0
SMALL
NO_CHARGES


@<TRIPOS>ATOM
   1 C1            -0.8297    -0.0403     1.1339 C.2     
   2 C2             0.0021    -0.0041     0.0020 C.2     
   3 C3            -0.4084     0.7466    -1.1152 C.2     
   4 C4            -1.5823     1.4144    -1.0856 C.2     
   5 N5            -2.3876     1.3803     0.0079 N.am    
   6 C6            -2.0503     0.6747     1.1034 C.2     
   7 C7            -0.4523    -0.7912     2.2934 C.1     
   8 N8            -0.1529    -1.3868     3.2133 N.1     
   9 N9             1.1960    -0.6894    -0.0135 N.pl3   
  10 O10           -2.7908     0.6601     2.0721 O.2     
  11 C11           -3.6513     2.1211    -0.0078 C.3     
  12 C12           -4.7644     1.2193    -0.5452 C.3     
  13 C13           -6.0843     1.9930    -0.5616 C.3     
  14 C14            1.2257    -2.1564     0.0884 C.3     
  15 C15            2.0846    -2.7064    -1.0553 C.3     
  16 N16            3.4012    -2.0553    -1.0315 N.3     
  17 C17            3.2853    -0.6100    -1.2672 C.3     
  18 C18            2.4752     0.0255    -0.1384 C.3     
  19 C19            4.2695    -2.6462    -1.9560 C.ar    
  20 C20           -5.9847     3.1503    -1.5575 C.3     
  21 C21           -7.2194     1.0563    -0.9801 C.3     
  22 C22            3.8327    -3.7049    -2.7405 C.ar    
  23 C23            4.6894    -4.2891    -3.6546 C.ar    
  24 C24            5.9856    -3.8206    -3.7903 C.ar    
  25 C25            5.5666    -2.1698    -2.0931 C.ar    
  26 O26            7.0100    -4.2169    -4.6028 O.3     
  27 C27            8.2016    -3.6579    -4.0190 C.3     
  28 O28            7.7266    -2.4895    -3.3245 O.3     
  29 C29            6.4270    -2.7584    -3.0045 C.ar    
  30 H30            0.2151     0.7891    -1.9961 H       
  31 H31           -1.8867     1.9875    -1.9489 H       
  32 H32           -3.8986     2.4393     1.0049 H       
  33 H33           -3.5514     2.9965    -0.6495 H       
  34 H34           -4.5172     0.9011    -1.5579 H       
  35 H35           -4.8644     0.3439     0.0965 H       
  36 H36           -6.2869     2.3871     0.4342 H       
  37 H37            1.6592    -2.4483     1.0449 H       
  38 H38            0.2124    -2.5497     0.0071 H       
  39 H39            2.2086    -3.7823    -0.9320 H       
  40 H40            1.5954    -2.5030    -2.0079 H       
  41 H41            4.2800    -0.1655    -1.2977 H       
  42 H42            2.7793    -0.4358    -2.2169 H       
  43 H43            2.2892     1.0749    -0.3671 H       
  44 H44            3.0264    -0.0559     0.7985 H       
  45 H45           -5.7821     2.7562    -2.5534 H       
  46 H46           -6.9250     3.7015    -1.5692 H       
  47 H47           -5.1761     3.8176    -1.2594 H       
  48 H48           -7.2903     0.2319    -0.2706 H       
  49 H49           -8.1597     1.6075    -0.9918 H       
  50 H50           -7.0168     0.6622    -1.9760 H       
  51 H51            2.8226    -4.0726    -2.6363 H       
  52 H52            4.3474    -5.1127    -4.2639 H       
  53 H53            5.9057    -1.3435    -1.4859 H       
  54 H54            8.6523    -4.3622    -3.3199 H       
  55 H55            8.9138    -3.3787    -4.7955 H       
@<TRIPOS>BOND
   1    1    2 2
   2    1    7 1
   3    1    6 1
   4    2    3 1
   5    2    9 1
   6    3    4 2
   7    3   30 1
   8    4    5 1
   9    4   31 1
  10    5   11 1
  11    5    6 am
  12    6   10 2
  13    7    8 3
  14    9   14 1
  15    9   18 1
  16   11   12 1
  17   11   32 1
  18   11   33 1
  19   12   13 1
  20   12   34 1
  21   12   35 1
  22   13   20 1
  23   13   21 1
  24   13   36 1
  25   14   15 1
  26   14   37 1
  27   14   38 1
  28   15   16 1
  29   15   39 1
  30   15   40 1
  31   16   17 1
  32   16   19 1
  33   17   18 1
  34   17   41 1
  35   17   42 1
  36   18   43 1
  37   18   44 1
  38   19   22 ar
  39   19   25 ar
  40   20   45 1
  41   20   46 1
  42   20   47 1
  43   21   48 1
  44   21   49 1
  45   21   50 1
  46   22   23 ar
  47   22   51 1
  48   23   24 ar
  49   23   52 1
  50   24   26 1
  51   24   29 ar
  52   25   29 ar
  53   25   53 1
  54   26   27 1
  55   27   28 1
  56   27   54 1
  57   27   55 1
  58   28   29 1

#	End of record

