#	Name: ASD01882692
#	Creating user name:	WinNT
#	Creation time:	15. 06. 2019 19:45

#	Modifying user name:	WinNT
#	Modification time:	15. 06. 2019 19:45

#	Program:	/corina/corina34_cracker 3.40 0067  02.08.2006

@<TRIPOS>MOLECULE
ASD01882692
  50   51    0    0    0
SMALL
NO_CHARGES


@<TRIPOS>ATOM
   1 N1            -4.0870    -1.4164     1.6637 N.pl3   
   2 O2            -2.5729    -3.1736     1.0776 O.3     
   3 C3            -3.8145    -2.6518     1.1290 C.2     
   4 N4            -4.7289    -3.4237     0.6274 N.2     
   5 C5            -4.0845    -4.6659     0.1584 C.3     
   6 C6            -2.7018    -4.5922     0.8510 C.3     
   7 C7            -1.5958    -5.1035    -0.0743 C.3     
   8 O8            -0.3326    -4.9867     0.5834 O.3     
   9 C9             0.7628    -5.4005    -0.1064 C.ar    
  10 C10            2.0210    -5.3155     0.4718 C.ar    
  11 C11            3.1329    -5.7368    -0.2315 C.ar    
  12 C12            2.9925    -6.2428    -1.5106 C.ar    
  13 C13            1.7397    -6.3281    -2.0892 C.ar    
  14 C14            0.6240    -5.9139    -1.3877 C.ar    
  15 C15            4.2072    -6.7017    -2.2755 C.3     
  16 C16            3.7795    -7.2131    -3.6526 C.3     
  17 C17            5.0188    -7.4329    -4.5225 C.3     
  18 C18            6.1222    -8.0810    -3.6837 C.3     
  19 C19            4.6633    -8.3504    -5.6941 C.3     
  20 C20            5.5102    -6.0872    -5.0594 C.3     
  21 C21            5.1759    -5.5296    -2.4450 C.3     
  22 C22            4.8994    -7.8281    -1.5054 C.3     
  23 H23           -3.3682    -0.8761     2.0273 H       
  24 H24           -4.9976    -1.0826     1.6740 H       
  25 H25           -4.6404    -5.5425     0.4912 H       
  26 H26           -3.9773    -4.6634    -0.9263 H       
  27 H27           -2.7062    -5.1403     1.7931 H       
  28 H28           -1.7822    -6.1490    -0.3200 H       
  29 H29           -1.5851    -4.5116    -0.9895 H       
  30 H30            2.1312    -4.9201     1.4707 H       
  31 H31            4.1127    -5.6706     0.2180 H       
  32 H32            1.6327    -6.7230    -3.0887 H       
  33 H33           -0.3550    -5.9852    -1.8382 H       
  34 H34            3.2431    -8.1553    -3.5397 H       
  35 H35            3.1283    -6.4788    -4.1268 H       
  36 H36            5.7082    -8.9200    -3.1245 H       
  37 H37            6.9154    -8.4382    -4.3405 H       
  38 H38            6.5291    -7.3465    -2.9887 H       
  39 H39            3.8773    -7.8888    -6.2916 H       
  40 H40            5.5462    -8.5070    -6.3138 H       
  41 H41            4.3133    -9.3092    -5.3115 H       
  42 H42            6.3727    -5.7579    -4.4800 H       
  43 H43            5.7954    -6.1958    -6.1058 H       
  44 H44            4.7125    -5.3491    -4.9750 H       
  45 H45            5.0347    -4.8206    -1.6293 H       
  46 H46            6.2008    -5.9004    -2.4309 H       
  47 H47            4.9823    -5.0328    -3.3958 H       
  48 H48            4.3410    -8.7549    -1.6373 H       
  49 H49            5.9131    -7.9577    -1.8843 H       
  50 H50            4.9371    -7.5742    -0.4461 H       
@<TRIPOS>BOND
   1    1    3 1
   2    1   23 1
   3    1   24 1
   4    2    3 1
   5    2    6 1
   6    3    4 2
   7    4    5 1
   8    5    6 1
   9    5   25 1
  10    5   26 1
  11    6    7 1
  12    6   27 1
  13    7    8 1
  14    7   28 1
  15    7   29 1
  16    8    9 1
  17    9   10 ar
  18    9   14 ar
  19   10   11 ar
  20   10   30 1
  21   11   12 ar
  22   11   31 1
  23   12   13 ar
  24   12   15 1
  25   13   14 ar
  26   13   32 1
  27   14   33 1
  28   15   16 1
  29   15   21 1
  30   15   22 1
  31   16   17 1
  32   16   34 1
  33   16   35 1
  34   17   18 1
  35   17   19 1
  36   17   20 1
  37   18   36 1
  38   18   37 1
  39   18   38 1
  40   19   39 1
  41   19   40 1
  42   19   41 1
  43   20   42 1
  44   20   43 1
  45   20   44 1
  46   21   45 1
  47   21   46 1
  48   21   47 1
  49   22   48 1
  50   22   49 1
  51   22   50 1

#	End of record

