#	Name: ASD00170397
#	Creating user name:	WinNT
#	Creation time:	15. 06. 2019 18:32

#	Modifying user name:	WinNT
#	Modification time:	15. 06. 2019 18:32

#	Program:	/corina/corina34_cracker 3.40 0067  02.08.2006

@<TRIPOS>MOLECULE
ASD00170397
  24   26    0    0    0
SMALL
NO_CHARGES


@<TRIPOS>ATOM
   1 C1            -0.0162     1.3423     0.0094 C.2     
   2 C2             0.0021    -0.0041     0.0020 C.2     
   3 S3            -1.6545    -0.6069     0.0146 S.3     
   4 C4            -2.2573     1.0456     0.0292 C.2     
   5 N5            -1.2618     1.8661     0.0291 N.2     
   6 N6            -3.5940     1.4095     0.0439 N.pl3   
   7 C7             1.3897     1.8539    -0.0013 C.ar    
   8 C8             2.2756     0.7833    -0.0155 C.ar    
   9 C9             1.4411    -0.4717    -0.0142 C.3     
  10 C10            1.8849     3.1583     0.0006 C.ar    
  11 C11            3.2481     3.3727    -0.0117 C.ar    
  12 C12            4.1227     2.3008    -0.0257 C.ar    
  13 C13            3.6357     1.0050    -0.0266 C.ar    
  14 C14            3.7863     4.7803    -0.0102 C.3     
  15 H15           -4.2826     0.7263     0.0469 H       
  16 H16           -3.8413     2.3474     0.0513 H       
  17 H17            1.6545    -1.0651     0.8749 H       
  18 H18            1.6374    -1.0555    -0.9136 H       
  19 H19            1.2042     3.9967     0.0112 H       
  20 H20            5.1885     2.4755    -0.0357 H       
  21 H21            4.3201     0.1696    -0.0373 H       
  22 H22            3.9260     5.1148     1.0178 H       
  23 H23            4.7423     4.8043    -0.5333 H       
  24 H24            3.0798     5.4400    -0.5140 H       
@<TRIPOS>BOND
   1    1    2 2
   2    1    7 1
   3    1    5 1
   4    2    3 1
   5    2    9 1
   6    3    4 1
   7    4    5 2
   8    4    6 1
   9    6   15 1
  10    6   16 1
  11    7    8 ar
  12    7   10 ar
  13    8    9 1
  14    8   13 ar
  15    9   17 1
  16    9   18 1
  17   10   11 ar
  18   10   19 1
  19   11   12 ar
  20   11   14 1
  21   12   13 ar
  22   12   20 1
  23   13   21 1
  24   14   22 1
  25   14   23 1
  26   14   24 1

#	End of record

