#	Name: ASD04840046
#	Creating user name:	WinNT
#	Creation time:	15. 06. 2019 20:52

#	Modifying user name:	WinNT
#	Modification time:	15. 06. 2019 20:52

#	Program:	/corina/corina34_cracker 3.40 0067  02.08.2006

@<TRIPOS>MOLECULE
ASD04840046
  29   30    0    0    0
SMALL
NO_CHARGES


@<TRIPOS>ATOM
   1 N1             0.1913     1.9888     0.3206 N.ar    
   2 C2             0.0344     0.6788     0.2340 C.ar    
   3 C3             1.1710    -0.1251     0.1351 C.ar    
   4 C4             2.4332     0.5027     0.1324 C.ar    
   5 N5             2.4945     1.8241     0.2233 N.ar    
   6 C6             1.3923     2.5386     0.3146 C.ar    
   7 N7             1.3908    -1.4586     0.0329 N.2     
   8 C8             2.6711    -1.6834    -0.0306 C.2     
   9 N9             3.3563    -0.5071     0.0268 N.pl3   
  10 C10            4.8121    -0.3493    -0.0166 C.3     
  11 C11            5.3334    -0.0373     1.3876 C.3     
  12 P12            5.0602    -1.4776     2.4712 P.3     
  13 O13            5.9050    -1.3529     3.6799 O.2     
  14 O14            3.5105    -1.5378     2.9033 O.3     
  15 O15            5.4497    -2.8252     1.6809 O.3     
  16 P16            7.1167     0.3319     1.3056 P.3     
  17 O17            7.3385     1.5012     0.4259 O.2     
  18 O18            7.6653     0.6602     2.7832 O.3     
  19 O19            7.9019    -0.9424     0.7125 O.3     
  20 H20           -0.9525     0.2401     0.2401 H       
  21 H21            1.4732     3.6131     0.3874 H       
  22 H22            3.1243    -2.6600    -0.1160 H       
  23 H23            5.2670    -1.2722    -0.3763 H       
  24 H24            5.0689     0.4688    -0.6896 H       
  25 H25            4.8018     0.8255     1.7891 H       
  26 H26            2.9038    -1.7068     2.1696 H       
  27 H27            5.3288    -3.6333     2.1981 H       
  28 H28            8.6095     0.8665     2.8154 H       
  29 H29            7.8010    -1.7468     1.2396 H       
@<TRIPOS>BOND
   1    1    2 ar
   2    1    6 ar
   3    2    3 ar
   4    2   20 1
   5    3    4 ar
   6    3    7 1
   7    4    5 ar
   8    4    9 1
   9    5    6 ar
  10    6   21 1
  11    7    8 2
  12    8    9 1
  13    8   22 1
  14    9   10 1
  15   10   11 1
  16   10   23 1
  17   10   24 1
  18   11   12 1
  19   11   16 1
  20   11   25 1
  21   12   13 2
  22   12   14 1
  23   12   15 1
  24   14   26 1
  25   15   27 1
  26   16   17 2
  27   16   18 1
  28   16   19 1
  29   18   28 1
  30   19   29 1

#	End of record

