#	Name: ASD01910237
#	Creating user name:	WinNT
#	Creation time:	15. 06. 2019 19:55

#	Modifying user name:	WinNT
#	Modification time:	15. 06. 2019 19:55

#	Program:	/corina/corina34_cracker 3.40 0067  02.08.2006

@<TRIPOS>MOLECULE
ASD01910237
  51   55    0    0    0
SMALL
NO_CHARGES


@<TRIPOS>ATOM
   1 C1            -0.3388     1.8034    -0.1160 C.2     
   2 C2             0.8314     2.7525    -0.0838 C.3     
   3 C3             0.5203     3.9764    -0.9484 C.3     
   4 C4             1.7209     4.9255    -0.9428 C.3     
   5 C5             1.9849     5.4000     0.4897 C.3     
   6 N6             2.1414     4.2238     1.3562 N.am    
   7 C7             1.0853     3.2024     1.3584 C.3     
   8 C8             3.2331     4.0845     2.1342 C.2     
   9 C9             4.3509     5.0321     2.0093 C.2     
  10 O10            3.2939     3.1750     2.9396 O.2     
  11 N11           -0.3233     0.5636    -0.5379 N.2     
  12 C12           -1.5874     0.1101    -0.3790 C.2     
  13 N13           -2.2891     1.0918     0.1251 N.2     
  14 O14           -1.5860     2.0670     0.2860 O.3     
  15 C15           -2.0851    -1.2469    -0.7146 C.ar    
  16 C16           -3.4216    -1.5749    -0.4954 C.ar    
  17 C17           -3.8804    -2.8375    -0.8092 C.ar    
  18 C18           -3.0142    -3.7790    -1.3417 C.ar    
  19 C19           -1.6845    -3.4570    -1.5613 C.ar    
  20 C20           -1.2187    -2.1950    -1.2552 C.ar    
  21 F21           -3.4674    -5.0145    -1.6473 F       
  22 C22            4.6906     5.7577     0.8848 C.2     
  23 C23            5.8071     6.5282     1.1995 C.2     
  24 N24            6.1430     6.2970     2.4446 N.2     
  25 N25            5.2485     5.3664     2.9881 N.pl3   
  26 C26            5.2727     4.8624     4.2942 C.ar    
  27 C27            6.4790     4.4948     4.8760 C.ar    
  28 C28            6.4995     3.9979     6.1644 C.ar    
  29 C29            5.3205     3.8658     6.8749 C.ar    
  30 C30            4.1177     4.2310     6.2985 C.ar    
  31 C31            4.0911     4.7343     5.0126 C.ar    
  32 H32            1.7181     2.2500    -0.4701 H       
  33 H33            0.3151     3.6566    -1.9700 H       
  34 H34           -0.3522     4.4921    -0.5474 H       
  35 H35            2.5996     4.4029    -1.3207 H       
  36 H36            1.5077     5.7856    -1.5775 H       
  37 H37            2.8969     5.9964     0.5148 H       
  38 H38            1.1437     6.0001     0.8367 H       
  39 H39            0.1708     3.6233     1.7762 H       
  40 H40            1.4037     2.3488     1.9567 H       
  41 H41           -4.0973    -0.8418    -0.0801 H       
  42 H42           -4.9159    -3.0927    -0.6394 H       
  43 H43           -1.0127    -4.1937    -1.9765 H       
  44 H44           -0.1821    -1.9449    -1.4267 H       
  45 H45            4.1820     5.7323    -0.0676 H       
  46 H46            6.3134     7.2050     0.5272 H       
  47 H47            7.4001     4.5970     4.3213 H       
  48 H48            7.4372     3.7118     6.6174 H       
  49 H49            5.3391     3.4763     7.8821 H       
  50 H50            3.1986     4.1266     6.8560 H       
  51 H51            3.1515     5.0196     4.5631 H       
@<TRIPOS>BOND
   1    1   11 2
   2    1    2 1
   3    1   14 1
   4    2    3 1
   5    2    7 1
   6    2   32 1
   7    3    4 1
   8    3   33 1
   9    3   34 1
  10    4    5 1
  11    4   35 1
  12    4   36 1
  13    5    6 1
  14    5   37 1
  15    5   38 1
  16    6    7 1
  17    6    8 am
  18    7   39 1
  19    7   40 1
  20    8    9 1
  21    8   10 2
  22    9   22 2
  23    9   25 1
  24   11   12 1
  25   12   13 2
  26   12   15 1
  27   13   14 1
  28   15   16 ar
  29   15   20 ar
  30   16   17 ar
  31   16   41 1
  32   17   18 ar
  33   17   42 1
  34   18   19 ar
  35   18   21 1
  36   19   20 ar
  37   19   43 1
  38   20   44 1
  39   22   23 1
  40   22   45 1
  41   23   24 2
  42   23   46 1
  43   24   25 1
  44   25   26 1
  45   26   27 ar
  46   26   31 ar
  47   27   28 ar
  48   27   47 1
  49   28   29 ar
  50   28   48 1
  51   29   30 ar
  52   29   49 1
  53   30   31 ar
  54   30   50 1
  55   31   51 1

#	End of record

