#	Name: ASD02500794
#	Creating user name:	WinNT
#	Creation time:	15. 06. 2019 20:23

#	Modifying user name:	WinNT
#	Modification time:	15. 06. 2019 20:23

#	Program:	/corina/corina34_cracker 3.40 0067  02.08.2006

@<TRIPOS>MOLECULE
ASD02500794
  46   48    0    0    0
SMALL
NO_CHARGES


@<TRIPOS>ATOM
   1 N1             0.0557     1.7337    -0.1106 N.pl3   
   2 C2            -0.0628     0.3455    -0.0491 C.2     
   3 C3             1.2137    -0.1595     0.0356 C.2     
   4 C4             2.1104     0.9395     0.0248 C.2     
   5 C5             1.3801     2.0636    -0.0641 C.2     
   6 C6            -1.0485    -0.6504    -0.0474 C.2     
   7 C7            -0.6036    -1.8966     0.0339 C.2     
   8 S8             1.1505    -1.9159     0.1172 S.3     
   9 H9            -1.2311    -2.7755     0.0474 H       
  10 C10            3.6135     0.8604     0.1000 C.3     
  11 C11            4.0535     1.0143     1.5331 C.ar    
  12 C12            4.1026    -0.0915     2.3652 C.ar    
  13 C13            4.5070     0.0515     3.6815 C.ar    
  14 C14            4.8612     1.2975     4.1637 C.ar    
  15 C15            4.8114     2.4006     3.3323 C.ar    
  16 C16            4.4136     2.2580     2.0158 C.ar    
  17 F17            3.7557    -1.3088     1.8930 F       
  18 C18           -1.0567     2.6813    -0.2145 C.3     
  19 C19            1.9339     3.4645    -0.1065 C.3     
  20 H20           -2.1015    -0.4180    -0.1080 H       
  21 H21            3.9459    -0.1054    -0.2804 H       
  22 H22            4.0499     1.6577    -0.5017 H       
  23 H23            4.5453    -0.8102     4.3315 H       
  24 H24            5.1767     1.4092     5.1905 H       
  25 H25            5.0877     3.3739     3.7101 H       
  26 H26            4.3800     3.1198     1.3656 H       
  27 H27           -1.3855     2.9666     0.7848 H       
  28 H28           -0.7289     3.5684    -0.7563 H       
  29 H29           -1.8835     2.2138    -0.7493 H       
  30 H30            1.9841     3.8661     0.9056 H       
  31 H31            2.9335     3.4471    -0.5405 H       
  32 H32            1.2844     4.0936    -0.7152 H       
  33 C33           11.2380    12.2315    10.2324 C.2     
  34 C34           11.2572    10.8207    10.2246 C.2     
  35 C35           12.4533    10.1732    10.2097 C.2     
  36 C36           13.6474    10.9139    10.2023 C.2     
  37 N37           13.6200    12.2178    10.2100 N.2     
  38 N38           12.4035    12.9096    10.2249 N.am    
  39 O39           10.1767    12.8323    10.2407 O.2     
  40 C40           12.3969    14.2574    10.2318 C.2     
  41 O41           11.3426    14.8592    10.2447 O.2     
  42 O42           13.5588    14.9359    10.2243 O.3     
  43 H43           10.3331    10.2617    10.2308 H       
  44 H44           12.4851     9.0936    10.2040 H       
  45 H45           14.5965    10.3987    10.1905 H       
  46 H46           13.5034    15.9013    10.2297 H       
@<TRIPOS>BOND
   1    1    2 1
   2    1    5 1
   3    1   18 1
   4    2    3 2
   5    2    6 1
   6    3    4 1
   7    3    8 1
   8    4    5 2
   9    4   10 1
  10    5   19 1
  11    6    7 2
  12    6   20 1
  13    7    8 1
  14    7    9 1
  15   10   11 1
  16   10   21 1
  17   10   22 1
  18   11   12 ar
  19   11   16 ar
  20   12   13 ar
  21   12   17 1
  22   13   14 ar
  23   13   23 1
  24   14   15 ar
  25   14   24 1
  26   15   16 ar
  27   15   25 1
  28   16   26 1
  29   18   27 1
  30   18   28 1
  31   18   29 1
  32   19   30 1
  33   19   31 1
  34   19   32 1
  35   33   34 1
  36   33   38 am
  37   33   39 2
  38   34   35 2
  39   34   43 1
  40   35   36 1
  41   35   44 1
  42   36   37 2
  43   36   45 1
  44   37   38 1
  45   38   40 am
  46   40   41 2
  47   40   42 1
  48   42   46 1

#	End of record

