#	Name: ASD05503029
#	Creating user name:	WinNT
#	Creation time:	15. 06. 2019 21:01

#	Modifying user name:	WinNT
#	Modification time:	15. 06. 2019 21:01

#	Program:	/corina/corina34_cracker 3.40 0067  02.08.2006

@<TRIPOS>MOLECULE
ASD05503029
  44   46    0    0    0
SMALL
NO_CHARGES


@<TRIPOS>ATOM
   1 C1            -0.1503     1.3617     0.4405 C.ar    
   2 C2            -0.0934    -0.0173     0.2839 C.ar    
   3 C3             1.1365    -0.6548     0.2031 C.ar    
   4 C4             2.3059     0.0881     0.2789 C.ar    
   5 C5             2.2420     1.4674     0.4356 C.ar    
   6 C6             1.0161     2.0988     0.5158 C.ar    
   7 N7            -1.2750    -0.7630     0.2083 N.am    
   8 C8            -1.3354    -1.8513    -0.5845 C.2     
   9 C9            -2.5647    -2.7230    -0.5751 C.3     
  10 O10           -0.4005    -2.1291    -1.3055 O.2     
  11 C11           -2.3761    -3.8812    -1.5568 C.3     
  12 C12           -3.6242    -4.7662    -1.5473 C.3     
  13 N13            3.5474    -0.5505     0.1983 N.am    
  14 C14            4.5806     0.0599    -0.4151 C.2     
  15 C15            5.8615    -0.6546    -0.5915 C.ar    
  16 O16            4.4585     1.1985    -0.8234 O.2     
  17 C17            6.0090    -1.9712    -0.1216 C.ar    
  18 N18            7.1318    -2.6272    -0.2649 N.ar    
  19 C19            8.1949    -2.0794    -0.8647 C.ar    
  20 C20            8.1263    -0.7548    -1.3662 C.ar    
  21 C21            6.9294    -0.0322    -1.2288 C.ar    
  22 C22            9.3922    -2.8012    -1.0080 C.ar    
  23 C23           10.4614    -2.2236    -1.6214 C.ar    
  24 C24           10.3922    -0.9217    -2.1132 C.ar    
  25 C25            9.2502    -0.1903    -1.9936 C.ar    
  26 H26           -1.1073     1.8588     0.4989 H       
  27 H27            1.1835    -1.7269     0.0817 H       
  28 H28            3.1518     2.0463     0.4947 H       
  29 H29            0.9690     3.1709     0.6378 H       
  30 H30           -2.0505    -0.4967     0.7264 H       
  31 H31           -2.7216    -3.1190     0.4282 H       
  32 H32           -3.4313    -2.1323    -0.8722 H       
  33 H33           -2.2192    -3.4851    -2.5602 H       
  34 H34           -1.5096    -4.4719    -1.2598 H       
  35 H35           -3.4898    -5.5913    -2.2467 H       
  36 H36           -3.7811    -5.1622    -0.5440 H       
  37 H37           -4.4907    -4.1755    -1.8444 H       
  38 H38            3.6649    -1.4327     0.5839 H       
  39 H39            5.1761    -2.4524     0.3694 H       
  40 H40            6.8437     0.9785    -1.5996 H       
  41 H41            9.4639    -3.8111    -0.6322 H       
  42 H42           11.3786    -2.7837    -1.7284 H       
  43 H43           11.2555    -0.4873    -2.5955 H       
  44 H44            9.2080     0.8178    -2.3789 H       
@<TRIPOS>BOND
   1    1    2 ar
   2    1    6 ar
   3    1   26 1
   4    2    3 ar
   5    2    7 1
   6    3    4 ar
   7    3   27 1
   8    4    5 ar
   9    4   13 1
  10    5    6 ar
  11    5   28 1
  12    6   29 1
  13    7    8 am
  14    7   30 1
  15    8    9 1
  16    8   10 2
  17    9   11 1
  18    9   31 1
  19    9   32 1
  20   11   12 1
  21   11   33 1
  22   11   34 1
  23   12   35 1
  24   12   36 1
  25   12   37 1
  26   13   14 am
  27   13   38 1
  28   14   15 1
  29   14   16 2
  30   15   17 ar
  31   15   21 ar
  32   17   18 ar
  33   17   39 1
  34   18   19 ar
  35   19   20 ar
  36   19   22 ar
  37   20   21 ar
  38   20   25 ar
  39   21   40 1
  40   22   23 ar
  41   22   41 1
  42   23   24 ar
  43   23   42 1
  44   24   25 ar
  45   24   43 1
  46   25   44 1

#	End of record

