#	Name: ASD00960171
#	Creating user name:	WinNT
#	Creation time:	15. 06. 2019 18:53

#	Modifying user name:	WinNT
#	Modification time:	15. 06. 2019 18:53

#	Program:	/corina/corina34_cracker 3.40 0067  02.08.2006

@<TRIPOS>MOLECULE
ASD00960171
  43   46    0    0    0
SMALL
NO_CHARGES


@<TRIPOS>ATOM
   1 O1            -0.2474     1.0603    -2.4121 O.3     
   2 O2            -2.4300    -0.1989    -2.7802 O.3     
   3 C3            -0.2172    -0.2008    -1.7409 C.3     
   4 C4            -1.5414    -0.9649    -1.9642 C.3     
   5 C5            -1.1114    -2.2555    -2.6961 C.3     
   6 O6             0.2740    -2.4415    -2.3329 O.3     
   7 C7             0.8563    -1.1202    -2.3643 C.3     
   8 C8             2.1386    -1.0833    -1.5305 C.3     
   9 C9            -1.9382    -3.4249    -2.2273 C.2     
  10 C10           -3.1527    -3.7702    -2.7168 C.2     
  11 N11           -1.5793    -4.2966    -1.2552 N.pl3   
  12 C12           -2.5835    -5.2284    -1.1032 C.2     
  13 C13           -3.5898    -4.9143    -2.0187 C.2     
  14 N14           -0.4443    -4.4037    -0.4384 N.2     
  15 C15           -0.3585    -5.3677     0.4377 C.2     
  16 N16           -1.3212    -6.2734     0.5933 N.2     
  17 C17           -2.4251    -6.2427    -0.1366 C.2     
  18 O18            3.1314    -1.9058    -2.1468 O.3     
  19 N19           -3.4093    -7.1945     0.0449 N.pl3   
  20 C20           -2.2001    -1.2991    -0.6243 C.3     
  21 C21           -4.8598    -5.6364    -2.2158 C.2     
  22 N22           -5.8899    -5.2389    -3.0197 N.pl3   
  23 C23           -6.8715    -6.1920    -2.9133 C.2     
  24 C24           -6.4194    -7.1311    -2.0596 C.2     
  25 N25           -5.1937    -6.7782    -1.6515 N.2     
  26 H26            0.5597     1.5822    -2.3053 H       
  27 H27           -2.6846     0.6505    -2.3944 H       
  28 H28           -0.0317    -0.0612    -0.6759 H       
  29 H29           -1.2073    -2.1300    -3.7746 H       
  30 H30            1.0622    -0.8206    -3.3919 H       
  31 H31            2.5030    -0.0579    -1.4696 H       
  32 H32            1.9305    -1.4552    -0.5272 H       
  33 H33           -3.6907    -3.2598    -3.5020 H       
  34 H34            0.5239    -5.4326     1.0571 H       
  35 H35            3.9730    -1.9299    -1.6711 H       
  36 H36           -3.1657    -8.1182     0.2133 H       
  37 H37           -4.3443    -6.9392     0.0041 H       
  38 H38           -2.4340    -0.3759    -0.0941 H       
  39 H39           -3.1182    -1.8595    -0.8005 H       
  40 H40           -1.5172    -1.9000    -0.0236 H       
  41 H41           -5.9218    -4.4355    -3.5623 H       
  42 H42           -7.8262    -6.1895    -3.4181 H       
  43 H43           -6.9536    -8.0201    -1.7583 H       
@<TRIPOS>BOND
   1    1    3 1
   2    1   26 1
   3    2    4 1
   4    2   27 1
   5    3    4 1
   6    3    7 1
   7    3   28 1
   8    4   20 1
   9    4    5 1
  10    5    6 1
  11    5    9 1
  12    5   29 1
  13    6    7 1
  14    7    8 1
  15    7   30 1
  16    8   18 1
  17    8   31 1
  18    8   32 1
  19    9   10 2
  20    9   11 1
  21   10   13 1
  22   10   33 1
  23   11   12 1
  24   11   14 1
  25   12   13 2
  26   12   17 1
  27   13   21 1
  28   14   15 2
  29   15   16 1
  30   15   34 1
  31   16   17 2
  32   17   19 1
  33   18   35 1
  34   19   36 1
  35   19   37 1
  36   20   38 1
  37   20   39 1
  38   20   40 1
  39   21   22 1
  40   21   25 2
  41   22   23 1
  42   22   41 1
  43   23   24 2
  44   23   42 1
  45   24   25 1
  46   24   43 1

#	End of record

