#	Name: ASD09116225
#	Creating user name:	WinNT
#	Creation time:	15. 06. 2019 21:21

#	Modifying user name:	WinNT
#	Modification time:	15. 06. 2019 21:21

#	Program:	/corina/corina34_cracker 3.40 0067  02.08.2006

@<TRIPOS>MOLECULE
ASD09116225
  73   78    0    0    0
SMALL
NO_CHARGES


@<TRIPOS>ATOM
   1 N1            -0.7502     3.4970     2.8671 N.2     
   2 N2            -1.1617     2.1753     2.6311 N.pl3   
   3 C3             0.4972     3.5860     2.4717 C.2     
   4 N4             0.8915     2.3968     2.0015 N.2     
   5 C5            -0.0985     1.5346     2.0909 C.2     
   6 N6             1.2854     4.7352     2.5309 N.pl3   
   7 C7             2.6456     4.6688     2.2051 C.ar    
   8 C8             3.3155     5.8107     1.7843 C.ar    
   9 C9             5.3372     4.5349     1.5609 C.ar    
  10 C10            4.6681     3.3965     1.9872 C.ar    
  11 C11            3.3258     3.4629     2.3080 C.ar    
  12 C12           -2.4182     1.6299     2.9006 C.ar    
  13 N13           -2.8444     0.5785     2.2169 N.ar    
  14 N14           -3.9960     0.0443     2.4192 N.ar    
  15 C15           -4.8306     0.5191     3.3298 C.ar    
  16 C16           -4.4575     1.6139     4.1147 C.ar    
  17 C17           -3.2239     2.1895     3.8956 C.ar    
  18 C18           -6.1794    -0.0605     3.5277 C.ar    
  19 C19           -7.2824     0.7941     3.5623 C.ar    
  20 C20           -7.0806     2.2684     3.3429 C.3     
  21 C21           -6.5123     2.9440     4.5880 C.3     
  22 C22           -5.3824     2.1109     5.1873 C.3     
  23 C23           -6.3561    -1.4311     3.6818 C.ar    
  24 C24           -7.6247    -1.9380     3.8878 C.ar    
  25 C25           -8.7125    -1.0856     3.9427 C.ar    
  26 C26           -8.5419     0.2785     3.7807 C.ar    
  27 N27           -0.0599     0.2092     1.7016 N.pl3   
  28 C28            4.6580     5.7447     1.4628 C.ar    
  29 N29            6.6987     4.4672     1.2360 N.3     
  30 F30            5.3102     6.8546     1.0531 F       
  31 C31            7.4972     4.0275     2.3948 C.3     
  32 C32            8.2766     2.7680     1.9615 C.3     
  33 C33            8.3143     2.8948     0.4158 C.3     
  34 C34            6.9309     3.5259     0.1198 C.3     
  35 N35            9.6364     2.7819     2.5172 N.3     
  36 C36           10.3311     1.5175     2.2403 C.3     
  37 C37           11.4004     1.2787     3.3083 C.3     
  38 C38           10.4023     3.9264     2.0058 C.3     
  39 C39           11.6134     4.1734     2.9076 C.3     
  40 H40            0.8913     5.5804     2.7979 H       
  41 H41            2.7873     6.7496     1.7081 H       
  42 H42            5.1967     2.4581     2.0679 H       
  43 H43            2.8057     2.5764     2.6394 H       
  44 H44           -2.8958     3.0456     4.4664 H       
  45 H45           -6.3906     2.4141     2.5118 H       
  46 H46           -8.0380     2.7263     3.0944 H       
  47 H47           -6.1287     3.9281     4.3188 H       
  48 H48           -7.3048     3.0585     5.3275 H       
  49 H49           -5.8077     1.2586     5.7171 H       
  50 H50           -4.8190     2.7243     5.8905 H       
  51 H51           -5.5061    -2.0960     3.6404 H       
  52 H52           -7.7672    -3.0020     4.0059 H       
  53 H53           -9.7007    -1.4866     4.1129 H       
  54 H54           -9.3955     0.9386     3.8255 H       
  55 H55            0.7521    -0.1613     1.3219 H       
  56 H56           -0.8449    -0.3506     1.8080 H       
  57 H57            8.1945     4.8136     2.6844 H       
  58 H58            6.8385     3.7871     3.2293 H       
  59 H59            7.7459     1.8643     2.2612 H       
  60 H60            9.1209     3.5554     0.0978 H       
  61 H61            8.4054     1.9156    -0.0542 H       
  62 H62            6.1584     2.7570     0.1049 H       
  63 H63            6.9532     4.0610    -0.8295 H       
  64 H64            9.6131     0.6976     2.2553 H       
  65 H65           10.8029     1.5694     1.2591 H       
  66 H66           11.7981     0.2691     3.2049 H       
  67 H67           12.2067     2.0014     3.1832 H       
  68 H68           10.9581     1.3954     4.2977 H       
  69 H69           10.7416     3.7128     0.9922 H       
  70 H70            9.7686     4.8132     1.9975 H       
  71 H71           11.9877     5.1840     2.7445 H       
  72 H72           11.3189     4.0590     3.9508 H       
  73 H73           12.3963     3.4532     2.6700 H       
@<TRIPOS>BOND
   1    1    2 1
   2    1    3 2
   3    2   12 1
   4    2    5 1
   5    3    4 1
   6    3    6 1
   7    4    5 2
   8    5   27 1
   9    6    7 1
  10    6   40 1
  11    7    8 ar
  12    7   11 ar
  13    8   28 ar
  14    8   41 1
  15    9   10 ar
  16    9   29 1
  17    9   28 ar
  18   10   11 ar
  19   10   42 1
  20   11   43 1
  21   12   13 ar
  22   12   17 ar
  23   13   14 ar
  24   14   15 ar
  25   15   16 ar
  26   15   18 1
  27   16   17 ar
  28   16   22 1
  29   17   44 1
  30   18   19 ar
  31   18   23 ar
  32   19   20 1
  33   19   26 ar
  34   20   21 1
  35   20   45 1
  36   20   46 1
  37   21   22 1
  38   21   47 1
  39   21   48 1
  40   22   49 1
  41   22   50 1
  42   23   24 ar
  43   23   51 1
  44   24   25 ar
  45   24   52 1
  46   25   26 ar
  47   25   53 1
  48   26   54 1
  49   27   55 1
  50   27   56 1
  51   28   30 1
  52   29   31 1
  53   29   34 1
  54   31   32 1
  55   31   57 1
  56   31   58 1
  57   32   33 1
  58   32   35 1
  59   32   59 1
  60   33   34 1
  61   33   60 1
  62   33   61 1
  63   34   62 1
  64   34   63 1
  65   35   36 1
  66   35   38 1
  67   36   37 1
  68   36   64 1
  69   36   65 1
  70   37   66 1
  71   37   67 1
  72   37   68 1
  73   38   39 1
  74   38   69 1
  75   38   70 1
  76   39   71 1
  77   39   72 1
  78   39   73 1

#	End of record

