#	Name: ASD01814183
#	Creating user name:	WinNT
#	Creation time:	15. 06. 2019 19:31

#	Modifying user name:	WinNT
#	Modification time:	15. 06. 2019 19:31

#	Program:	/corina/corina34_cracker 3.40 0067  02.08.2006

@<TRIPOS>MOLECULE
ASD01814183
  51   55    0    0    0
SMALL
NO_CHARGES


@<TRIPOS>ATOM
   1 N1            -0.3142     1.5506     1.3168 N.2     
   2 C2            -0.3730     0.2949     1.6930 C.2     
   3 C3             0.7812    -0.3630     2.1448 C.2     
   4 C4             1.9577     0.3101     2.1891 C.2     
   5 N5             1.9909     1.6164     1.7917 N.pl3   
   6 C6             0.8424     2.2254     1.3563 C.2     
   7 N7             3.0225     2.5584     1.7224 N.2     
   8 C8             2.5335     3.6938     1.2662 C.2     
   9 C9             1.1797     3.5321     1.0241 C.2     
  10 C10            2.9226     5.1081     0.9121 C.3     
  11 N11            1.7181     5.7976     0.4395 N.am    
  12 C12            0.6183     4.8297     0.5021 C.3     
  13 C13            1.6370     7.0778     0.0261 C.2     
  14 O14            0.5948     7.5035    -0.4336 O.2     
  15 C15            2.8118     7.9622     0.1313 C.ar    
  16 C16            3.1477     8.8169    -0.9288 C.ar    
  17 C17            3.5930     7.9572     1.2899 C.ar    
  18 C18            4.6891     8.7856     1.3833 C.ar    
  19 C19            5.0222     9.6266     0.3305 C.ar    
  20 C20            4.2534     9.6445    -0.8201 C.ar    
  21 O21            2.3932     8.8328    -2.0560 O.3     
  22 C22            3.2112    -0.3738     2.6707 C.3     
  23 Cl23           0.7037    -2.0241     2.6431 Cl      
  24 C24           -1.6856    -0.4436     1.6403 C.3     
  25 F25            6.0992    10.4360     0.4317 F       
  26 C26            2.7961     9.7290    -3.0937 C.3     
  27 C27            1.8468     9.6087    -4.2579 C.ar    
  28 C28            2.0886     8.6953    -5.2667 C.ar    
  29 C29            0.7169    10.4089    -4.3277 C.ar    
  30 C30           -0.1283    10.2637    -5.4175 C.ar    
  31 C31            0.1816     9.3329    -6.3907 C.ar    
  32 N32            1.2628     8.5847    -6.2887 N.ar    
  33 H33            3.3163     5.6145     1.7934 H       
  34 H34            3.6755     5.0978     0.1240 H       
  35 H35            0.2019     4.6781    -0.4938 H       
  36 H36           -0.1568     5.1947     1.1760 H       
  37 H37            3.3371     7.3046     2.1116 H       
  38 H38            5.2919     8.7811     2.2794 H       
  39 H39            4.5158    10.3039    -1.6341 H       
  40 H40            2.9818    -1.4046     2.9410 H       
  41 H41            3.9583    -0.3640     1.8771 H       
  42 H42            3.6002     0.1524     3.5424 H       
  43 H43           -2.4629     0.2233     1.2671 H       
  44 H44           -1.5931    -1.3019     0.9749 H       
  45 H45           -1.9503    -0.7861     2.6406 H       
  46 H46            2.7810    10.7516    -2.7167 H       
  47 H47            3.8051     9.4768    -3.4201 H       
  48 H48            2.9643     8.0651    -5.2175 H       
  49 H49            0.4998    11.1279    -3.5517 H       
  50 H50           -1.0177    10.8702    -5.5043 H       
  51 H51           -0.4715     9.2138    -7.2426 H       
@<TRIPOS>BOND
   1    1    2 2
   2    1    6 1
   3    2    3 1
   4    2   24 1
   5    3    4 2
   6    3   23 1
   7    4    5 1
   8    4   22 1
   9    5    7 1
  10    5    6 1
  11    6    9 2
  12    7    8 2
  13    8   10 1
  14    8    9 1
  15    9   12 1
  16   10   11 1
  17   10   33 1
  18   10   34 1
  19   11   12 1
  20   11   13 am
  21   12   35 1
  22   12   36 1
  23   13   14 2
  24   13   15 1
  25   15   17 ar
  26   15   16 ar
  27   16   20 ar
  28   16   21 1
  29   17   18 ar
  30   17   37 1
  31   18   19 ar
  32   18   38 1
  33   19   20 ar
  34   19   25 1
  35   20   39 1
  36   21   26 1
  37   22   40 1
  38   22   41 1
  39   22   42 1
  40   24   43 1
  41   24   44 1
  42   24   45 1
  43   26   27 1
  44   26   46 1
  45   26   47 1
  46   27   29 ar
  47   27   28 ar
  48   28   32 ar
  49   28   48 1
  50   29   30 ar
  51   29   49 1
  52   30   31 ar
  53   30   50 1
  54   31   32 ar
  55   31   51 1

#	End of record

