#	Name: ASD05720023
#	Creating user name:	WinNT
#	Creation time:	15. 06. 2019 21:01

#	Modifying user name:	WinNT
#	Modification time:	15. 06. 2019 21:01

#	Program:	/corina/corina34_cracker 3.40 0067  02.08.2006

@<TRIPOS>MOLECULE
ASD05720023
  66   70    0    0    0
SMALL
NO_CHARGES


@<TRIPOS>ATOM
   1 C1             0.5120     1.0236     1.1166 C.2     
   2 N2             0.4123    -0.2391     0.6809 N.am    
   3 C3             1.6581    -0.6134    -0.0048 C.3     
   4 C4             2.5298     0.6534     0.0955 C.3     
   5 N5             1.6825     1.6070     0.8271 N.am    
   6 O6            -0.3809     1.5905     1.7159 O.2     
   7 C7             1.3817    -0.9606    -1.4691 C.3     
   8 C8             0.5223    -2.2244    -1.5401 C.3     
   9 C9             0.6397     0.1989    -2.1368 C.3     
  10 C10           -1.6780    -3.1431     0.6610 C.2     
  11 N11           -0.6242    -2.3358     0.5053 N.2     
  12 C12           -0.6920    -1.0636     0.8500 C.2     
  13 C13           -1.8850    -0.5415     1.3902 C.2     
  14 C14           -2.9530    -1.3557     1.5494 C.2     
  15 N15           -2.8524    -2.6690     1.1827 N.pl3   
  16 N16           -3.7641    -3.7299     1.2250 N.2     
  17 C17           -3.1921    -4.8111     0.7551 C.2     
  18 C18           -1.8793    -4.5010     0.3794 C.2     
  19 C19           -0.8891    -5.4334    -0.2044 C.ar    
  20 C20           -0.6500    -6.6675     0.4024 C.ar    
  21 C21            0.2729    -7.5356    -0.1423 C.ar    
  22 C22            0.9675    -7.1787    -1.3009 C.ar    
  23 C23            0.7275    -5.9455    -1.9058 C.ar    
  24 C24           -0.1982    -5.0809    -1.3652 C.ar    
  25 N25            3.4786    -9.0253    -3.1614 N.pl3   
  26 N26            2.6742    -7.8902    -2.9696 N.2     
  27 C27            1.9603    -8.1112    -1.8869 C.2     
  28 N28            2.2798    -9.3187    -1.4012 N.2     
  29 C29            3.1888    -9.8736    -2.1586 C.2     
  30 F30            0.5055    -8.7301     0.4442 F       
  31 N31            0.2813     3.8990     1.7824 N.3     
  32 C32            1.1388     4.0553     0.5927 C.3     
  33 C33            2.0589     2.9774     1.1829 C.3     
  34 C34            1.4807     3.4609     2.5203 C.3     
  35 C35           -0.1883     5.2035     2.2679 C.3     
  36 C36           -1.2634     4.9932     3.3360 C.3     
  37 H37            2.1383    -1.4495     0.5035 H       
  38 H38            3.4428     0.4464     0.6537 H       
  39 H39            2.7657     1.0352    -0.8978 H       
  40 H40            2.3257    -1.1335    -1.9859 H       
  41 H41           -0.4947    -1.9904    -1.2257 H       
  42 H42            0.5093    -2.5978    -2.5641 H       
  43 H43            0.9403    -2.9855    -0.8812 H       
  44 H44            0.4428    -0.0484    -3.1799 H       
  45 H45           -0.3043     0.3719    -1.6200 H       
  46 H46            1.2519     1.0993    -2.0862 H       
  47 H47           -1.9453     0.4987     1.6744 H       
  48 H48           -3.8748    -0.9730     1.9620 H       
  49 H49           -3.6580    -5.7815     0.6684 H       
  50 H50           -1.1872    -6.9422     1.2981 H       
  51 H51            1.2649    -5.6699    -2.8011 H       
  52 H52           -0.3866    -4.1279    -1.8370 H       
  53 H53            4.1152    -9.1707    -3.8787 H       
  54 H54            3.6314   -10.8468    -2.0057 H       
  55 H55            0.6539     3.7517    -0.3351 H       
  56 H56            1.6088     5.0362     0.5221 H       
  57 H57            3.1223     3.1789     1.0541 H       
  58 H58            2.0419     4.2832     2.9641 H       
  59 H59            1.2855     2.6536     3.2262 H       
  60 H60            0.6485     5.7538     2.6980 H       
  61 H61           -0.6076     5.7709     1.4370 H       
  62 H62           -2.1002     4.4429     2.9059 H       
  63 H63           -0.8440     4.4258     4.1668 H       
  64 H64           -1.6118     5.9612     3.6963 H       
  65 Cl65           9.1152    10.9612     9.1668 Cl      
  66 H66            9.1152    12.3312     9.1668 H       
@<TRIPOS>BOND
   1    1    2 am
   2    1    5 am
   3    1    6 2
   4    2    3 1
   5    2   12 1
   6    3    4 1
   7    3    7 1
   8    3   37 1
   9    4    5 1
  10    4   38 1
  11    4   39 1
  12    5   33 1
  13    7    8 1
  14    7    9 1
  15    7   40 1
  16    8   41 1
  17    8   42 1
  18    8   43 1
  19    9   44 1
  20    9   45 1
  21    9   46 1
  22   10   11 1
  23   10   15 1
  24   10   18 2
  25   11   12 2
  26   12   13 1
  27   13   14 2
  28   13   47 1
  29   14   15 1
  30   14   48 1
  31   15   16 1
  32   16   17 2
  33   17   18 1
  34   17   49 1
  35   18   19 1
  36   19   20 ar
  37   19   24 ar
  38   20   21 ar
  39   20   50 1
  40   21   22 ar
  41   21   30 1
  42   22   23 ar
  43   22   27 1
  44   23   24 ar
  45   23   51 1
  46   24   52 1
  47   25   26 1
  48   25   29 1
  49   25   53 1
  50   26   27 2
  51   27   28 1
  52   28   29 2
  53   29   54 1
  54   31   32 1
  55   31   34 1
  56   31   35 1
  57   32   33 1
  58   32   55 1
  59   32   56 1
  60   33   34 1
  61   33   57 1
  62   34   58 1
  63   34   59 1
  64   35   36 1
  65   35   60 1
  66   35   61 1
  67   36   62 1
  68   36   63 1
  69   36   64 1
  70   65   66 1

#	End of record

