#	Name: ASD01918110
#	Creating user name:	WinNT
#	Creation time:	15. 06. 2019 20:10

#	Modifying user name:	WinNT
#	Modification time:	15. 06. 2019 20:10

#	Program:	/corina/corina34_cracker 3.40 0067  02.08.2006

@<TRIPOS>MOLECULE
ASD01918110
  47   50    0    0    0
SMALL
NO_CHARGES


@<TRIPOS>ATOM
   1 N1            -0.0880     1.5907     0.2436 N.am    
   2 C2            -0.2586     0.2080     0.3776 C.2     
   3 C3             1.9685    -0.3055    -0.6141 C.3     
   4 C4             1.8584     1.1241    -1.1563 C.3     
   5 C5             1.2785     2.0473    -0.0789 C.3     
   6 C6            -1.3034    -0.4844     0.8797 C.2     
   7 C7            -0.9889    -1.8468     0.7954 C.2     
   8 N8             0.2030    -1.9640     0.2609 N.2     
   9 N9             0.6871    -0.6857    -0.0138 N.pl3   
  10 C10           -1.8701    -2.9844     1.2432 C.3     
  11 O11           -3.0898    -2.4618     1.7735 O.3     
  12 C12           -1.1119     2.4540     0.3944 C.2     
  13 O13           -0.8965     3.6464     0.4504 O.2     
  14 C14           -4.0020    -3.3623     2.2252 C.ar    
  15 C15           -5.2081    -2.9245     2.7529 C.ar    
  16 C16           -6.1336    -3.8418     3.2114 C.ar    
  17 C17           -5.8588    -5.1952     3.1448 C.ar    
  18 C18           -4.6574    -5.6341     2.6197 C.ar    
  19 C19           -3.7311    -4.7210     2.1542 C.ar    
  20 C20           -2.5243     1.9379     0.4934 C.3     
  21 C21            1.2307     3.4619    -0.5964 C.ar    
  22 C22            0.4002     5.0690    -2.1648 C.ar    
  23 C23            0.4440     3.7715    -1.6901 C.ar    
  24 C24            1.9691     4.4509     0.0260 C.ar    
  25 C25            1.9253     5.7484    -0.4487 C.ar    
  26 C26            1.1434     6.0568    -1.5462 C.ar    
  27 H27            2.2061    -0.9880    -1.4300 H       
  28 H28            2.7530    -0.3499     0.1414 H       
  29 H29            2.8480     1.4797    -1.4434 H       
  30 H30            1.2053     1.1311    -2.0290 H       
  31 H31            1.9002     2.0023     0.8152 H       
  32 H32           -2.2163    -0.0639     1.2750 H       
  33 H33           -2.0906    -3.6296     0.3928 H       
  34 H34           -1.3566    -3.5605     2.0129 H       
  35 H35           -5.4230    -1.8674     2.8055 H       
  36 H36           -7.0725    -3.5014     3.6226 H       
  37 H37           -6.5837    -5.9108     3.5038 H       
  38 H38           -4.4448    -6.6917     2.5694 H       
  39 H39           -2.7928    -5.0643     1.7441 H       
  40 H40           -2.5335     0.8652     0.3003 H       
  41 H41           -2.9121     2.1304     1.4937 H       
  42 H42           -3.1487     2.4449    -0.2422 H       
  43 H43           -0.2142     5.3109    -3.0195 H       
  44 H44           -0.1361     2.9996    -2.1739 H       
  45 H45            2.5800     4.2099     0.8834 H       
  46 H46            2.5017     6.5213     0.0380 H       
  47 H47            1.1092     7.0706    -1.9171 H       
@<TRIPOS>BOND
   1    1    2 1
   2    1    5 1
   3    1   12 am
   4    2    6 2
   5    2    9 1
   6    3    4 1
   7    3    9 1
   8    3   27 1
   9    3   28 1
  10    4    5 1
  11    4   29 1
  12    4   30 1
  13    5   21 1
  14    5   31 1
  15    6    7 1
  16    6   32 1
  17    7    8 2
  18    7   10 1
  19    8    9 1
  20   10   11 1
  21   10   33 1
  22   10   34 1
  23   11   14 1
  24   12   13 2
  25   12   20 1
  26   14   15 ar
  27   14   19 ar
  28   15   16 ar
  29   15   35 1
  30   16   17 ar
  31   16   36 1
  32   17   18 ar
  33   17   37 1
  34   18   19 ar
  35   18   38 1
  36   19   39 1
  37   20   40 1
  38   20   41 1
  39   20   42 1
  40   21   24 ar
  41   21   23 ar
  42   22   23 ar
  43   22   26 ar
  44   22   43 1
  45   23   44 1
  46   24   25 ar
  47   24   45 1
  48   25   26 ar
  49   25   46 1
  50   26   47 1

#	End of record

