#	Name: ASD03331050
#	Creating user name:	WinNT
#	Creation time:	15. 06. 2019 20:38

#	Modifying user name:	WinNT
#	Modification time:	15. 06. 2019 20:38

#	Program:	/corina/corina34_cracker 3.40 0067  02.08.2006

@<TRIPOS>MOLECULE
ASD03331050
  71   74    0    0    0
SMALL
NO_CHARGES


@<TRIPOS>ATOM
   1 N1            -0.5816     1.7204    -0.2770 N.pl3   
   2 C2            -0.3403     0.3904    -0.1308 C.2     
   3 C3             1.0147    -0.2402     0.0582 C.3     
   4 N4             1.7528     0.5037     1.0909 N.3     
   5 C5             2.5123     1.6105     0.5063 C.3     
   6 C6             1.7752     2.2067    -0.6895 C.3     
   7 C7             0.4299     2.7802    -0.2360 C.3     
   8 C8            -1.9258     1.8747    -0.4540 C.2     
   9 N9            -2.4937     0.6927    -0.4013 N.2     
  10 C10           -1.5425    -0.2454    -0.2000 C.2     
  11 C11           -1.7659    -1.6968    -0.0776 C.2     
  12 O12           -0.8235    -2.4440     0.1030 O.2     
  13 N13           -3.0146    -2.1961    -0.1657 N.am    
  14 C14            2.6309    -0.3904     1.8573 C.3     
  15 C15           -4.5118    -4.0127    -0.7551 C.2     
  16 C16           -3.2368    -3.6391    -0.0440 C.3     
  17 C17           -3.3485    -4.0150     1.4349 C.3     
  18 C18           -3.7305    -5.4914     1.5584 C.3     
  19 O19           -5.4362    -3.2286    -0.7948 O.2     
  20 C20           -2.0038    -3.7766     2.1247 C.3     
  21 C21           -4.4230    -3.1528     2.1004 C.3     
  22 N22           -4.6250    -5.2183    -1.3469 N.am    
  23 C23           -5.9070    -5.6554    -1.9163 C.3     
  24 C24           -6.2694    -7.0210    -1.3243 C.3     
  25 C25           -5.1133    -7.9964    -1.5568 C.3     
  26 C26           -3.8583    -7.4807    -0.8487 C.3     
  27 C27           -3.4671    -6.1180    -1.4403 C.3     
  28 O28           -7.4485    -7.5187    -1.9601 O.3     
  29 C29           -2.6260     3.1597    -0.6688 C.ar    
  30 C30           -3.5612     3.2856    -1.6996 C.ar    
  31 C31           -4.2120     4.4893    -1.8941 C.ar    
  32 C32           -3.9392     5.5669    -1.0713 C.ar    
  33 C33           -3.0133     5.4481    -0.0488 C.ar    
  34 C34           -2.3601     4.2495     0.1602 C.ar    
  35 F35           -3.8281     2.2337    -2.5041 F       
  36 Cl36          -2.6776     6.8074     0.9775 Cl      
  37 H37            0.8935    -1.2768     0.3725 H       
  38 H38            1.5670    -0.2053    -0.8808 H       
  39 H39            2.6559     2.3841     1.2605 H       
  40 H40            3.4858     1.2441     0.1805 H       
  41 H41            2.3787     3.0016    -1.1277 H       
  42 H42            1.6051     1.4296    -1.4346 H       
  43 H43            0.1358     3.5907    -0.9028 H       
  44 H44            0.5199     3.1588     0.7822 H       
  45 H45           -3.7663    -1.6001    -0.3097 H       
  46 H46            3.3023    -0.9125     1.1755 H       
  47 H47            3.2162     0.1951     2.5663 H       
  48 H48            2.0257    -1.1175     2.3989 H       
  49 H49           -2.4002    -4.1746    -0.4928 H       
  50 H50           -2.9385    -6.1083     1.1337 H       
  51 H51           -3.8645    -5.7452     2.6099 H       
  52 H52           -4.6605    -5.6724     1.0195 H       
  53 H53           -1.7317    -2.7248     2.0367 H       
  54 H54           -2.0834    -4.0444     3.1783 H       
  55 H55           -1.2383    -4.3909     1.6505 H       
  56 H56           -5.3810    -3.3226     1.6090 H       
  57 H57           -4.5027    -3.4206     3.1540 H       
  58 H58           -4.1509    -2.1010     2.0124 H       
  59 H59           -6.6830    -4.9316    -1.6674 H       
  60 H60           -5.8162    -5.7390    -2.9993 H       
  61 H61           -6.4486    -6.9177    -0.2541 H       
  62 H62           -5.3786    -8.9757    -1.1583 H       
  63 H63           -4.9184    -8.0804    -2.6259 H       
  64 H64           -4.0602    -7.3731     0.2170 H       
  65 H65           -3.0416    -8.1876    -0.9952 H       
  66 H66           -3.1815    -6.2386    -2.4852 H       
  67 H67           -2.6329    -5.6996    -0.8772 H       
  68 H68           -7.7366    -8.3822    -1.6338 H       
  69 H69           -4.9348     4.5887    -2.6904 H       
  70 H70           -4.4503     6.5054    -1.2273 H       
  71 H71           -1.6418     4.1572     0.9614 H       
@<TRIPOS>BOND
   1    1    2 1
   2    1    7 1
   3    1    8 1
   4    2    3 1
   5    2   10 2
   6    3    4 1
   7    3   37 1
   8    3   38 1
   9    4    5 1
  10    4   14 1
  11    5    6 1
  12    5   39 1
  13    5   40 1
  14    6    7 1
  15    6   41 1
  16    6   42 1
  17    7   43 1
  18    7   44 1
  19    8    9 2
  20    8   29 1
  21    9   10 1
  22   10   11 1
  23   11   12 2
  24   11   13 am
  25   13   16 1
  26   13   45 1
  27   14   46 1
  28   14   47 1
  29   14   48 1
  30   15   19 2
  31   15   22 am
  32   15   16 1
  33   16   17 1
  34   16   49 1
  35   17   18 1
  36   17   20 1
  37   17   21 1
  38   18   50 1
  39   18   51 1
  40   18   52 1
  41   20   53 1
  42   20   54 1
  43   20   55 1
  44   21   56 1
  45   21   57 1
  46   21   58 1
  47   22   23 1
  48   22   27 1
  49   23   24 1
  50   23   59 1
  51   23   60 1
  52   24   25 1
  53   24   28 1
  54   24   61 1
  55   25   26 1
  56   25   62 1
  57   25   63 1
  58   26   27 1
  59   26   64 1
  60   26   65 1
  61   27   66 1
  62   27   67 1
  63   28   68 1
  64   29   30 ar
  65   29   34 ar
  66   30   31 ar
  67   30   35 1
  68   31   32 ar
  69   31   69 1
  70   32   33 ar
  71   32   70 1
  72   33   34 ar
  73   33   36 1
  74   34   71 1

#	End of record

