#	Name: ASD00510019
#	Creating user name:	WinNT
#	Creation time:	15. 06. 2019 18:36

#	Modifying user name:	WinNT
#	Modification time:	15. 06. 2019 18:36

#	Program:	/corina/corina34_cracker 3.40 0067  02.08.2006

@<TRIPOS>MOLECULE
ASD00510019
  41   44    0    0    0
SMALL
NO_CHARGES


@<TRIPOS>ATOM
   1 C1            -0.0170     1.4026     0.0098 C.ar    
   2 C2             0.0021    -0.0041     0.0020 C.ar    
   3 C3             1.1937    -0.6614    -0.0128 C.ar    
   4 C4             2.3985     0.0390    -0.0205 C.ar    
   5 C5             2.4186     1.4004    -0.0134 C.ar    
   6 C6             1.2094     2.1149     0.0019 C.ar    
   7 C7             1.1985     3.5223     0.0090 C.ar    
   8 C8             0.0191     4.1925     0.0238 C.ar    
   9 C9            -1.2057     3.4977     0.0318 C.ar    
  10 C10           -1.2275     2.1107     0.0193 C.ar    
  11 S11            3.9191    -0.8510    -0.0391 S.o2    
  12 O12            4.9017     0.0222     0.5006 O.2     
  13 O13            3.6392    -2.1349     0.5015 O.2     
  14 O14            4.2944    -1.0712    -1.4976 O.3     
  15 N15           -2.3803     4.1942     0.0473 N.2     
  16 N16           -2.3652     5.4841     0.0544 N.2     
  17 C17           -3.5338     6.1770     0.0698 C.ar    
  18 C18           -4.7757     8.3227     0.0940 C.ar    
  19 C19           -5.9738     7.5855     0.1015 C.ar    
  20 C20           -5.9555     6.2267     0.0995 C.ar    
  21 C21           -4.7606     5.5081     0.0838 C.ar    
  22 C22           -3.5356     7.6399     0.0781 C.ar    
  23 C23           -2.3427     8.3714     0.0711 C.ar    
  24 C24           -2.3876     9.7344     0.0797 C.ar    
  25 C25           -3.6054    10.4092     0.0957 C.ar    
  26 C26           -4.7847     9.7277     0.1033 C.ar    
  27 O27           -4.7893     4.1518     0.0817 O.3     
  28 H28           -0.9241    -0.5595     0.0082 H       
  29 H29            1.2058    -1.7413    -0.0184 H       
  30 H30            3.3605     1.9288    -0.0199 H       
  31 H31            2.1298     4.0692     0.0030 H       
  32 H32            0.0196     5.2725     0.0299 H       
  33 H33           -2.1685     1.5808     0.0205 H       
  34 H34            5.1220    -1.5556    -1.6219 H       
  35 H35           -6.9201     8.1060     0.1140 H       
  36 H36           -6.8919     5.6887     0.1054 H       
  37 H37           -1.3918     7.8594     0.0594 H       
  38 H38           -1.4663    10.2979     0.0743 H       
  39 H39           -3.6150    11.4891     0.1025 H       
  40 H40           -5.7218    10.2645     0.1150 H       
  41 H41           -4.8083     3.7602    -0.8022 H       
@<TRIPOS>BOND
   1    1    2 ar
   2    1    6 ar
   3    1   10 ar
   4    2    3 ar
   5    2   28 1
   6    3    4 ar
   7    3   29 1
   8    4    5 ar
   9    4   11 1
  10    5    6 ar
  11    5   30 1
  12    6    7 ar
  13    7    8 ar
  14    7   31 1
  15    8    9 ar
  16    8   32 1
  17    9   10 ar
  18    9   15 1
  19   10   33 1
  20   11   12 2
  21   11   13 2
  22   11   14 1
  23   14   34 1
  24   15   16 2
  25   16   17 1
  26   17   22 ar
  27   17   21 ar
  28   18   19 ar
  29   18   22 ar
  30   18   26 ar
  31   19   20 ar
  32   19   35 1
  33   20   21 ar
  34   20   36 1
  35   21   27 1
  36   22   23 ar
  37   23   24 ar
  38   23   37 1
  39   24   25 ar
  40   24   38 1
  41   25   26 ar
  42   25   39 1
  43   26   40 1
  44   27   41 1

#	End of record

