#	Name: ASD01940157
#	Creating user name:	WinNT
#	Creation time:	15. 06. 2019 20:11

#	Modifying user name:	WinNT
#	Modification time:	15. 06. 2019 20:11

#	Program:	/corina/corina34_cracker 3.40 0067  02.08.2006

@<TRIPOS>MOLECULE
ASD01940157
  43   45    0    0    0
SMALL
NO_CHARGES


@<TRIPOS>ATOM
   1 C1             0.2226     1.4316    -0.1845 C.3     
   2 F2            -2.1538    -4.9605     0.2194 F       
   3 C3            -1.2370    -5.3044     1.1503 C.ar    
   4 C4             0.0943    -4.9493     0.9787 C.ar    
   5 C5             1.0366    -5.3064     1.9418 C.ar    
   6 C6             0.6404    -6.0144     3.0666 C.ar    
   7 C7            -0.6867    -6.3653     3.2322 C.ar    
   8 C8            -1.6255    -6.0068     2.2798 C.ar    
   9 N9             0.4898    -4.2341    -0.1602 N.pl3   
  10 N10            2.3816    -4.9511     1.7736 N.am    
  11 C11            0.4241    -2.8384    -0.1664 C.ar    
  12 C12            0.0333    -2.1549     0.9775 C.ar    
  13 C13           -0.0311    -0.7749     0.9678 C.ar    
  14 C14            0.2938    -0.0737    -0.1786 C.ar    
  15 C15            0.6836    -0.7505    -1.3202 C.ar    
  16 C16            0.7554    -2.1302    -1.3164 C.ar    
  17 Cl17           1.2446    -2.9791    -2.7495 Cl      
  18 F18           -2.9218    -6.3474     2.4493 F       
  19 S19            3.5786    -5.9741     2.2866 S.o2    
  20 O20            4.7814    -5.3437     1.8682 O.2     
  21 O21            3.2990    -6.1773     3.6649 O.2     
  22 C22            4.0697    -9.0678     2.9926 C.3     
  23 C23            4.5580   -10.5038     3.1935 C.3     
  24 C24            5.2985    -9.3435     3.8614 C.3     
  25 C25            3.3011    -7.5018     1.3488 C.3     
  26 O26            4.2870    -8.4700     1.7130 O.3     
  27 H27            1.1852     1.8420     0.1208 H       
  28 H28           -0.0189     1.7800    -1.1887 H       
  29 H29           -0.5498     1.7616     0.5102 H       
  30 H30            1.3692    -6.2922     3.8137 H       
  31 H31           -0.9926    -6.9166     4.1090 H       
  32 H32            0.8091    -4.7081    -0.9440 H       
  33 H33            2.6115    -4.1060     1.3567 H       
  34 H34           -0.2208    -2.7016     1.8736 H       
  35 H35           -0.3350    -0.2431     1.8573 H       
  36 H36            0.9360    -0.1996    -2.2142 H       
  37 H37            3.1506    -8.7733     3.4991 H       
  38 H38            3.9603   -11.1539     3.8326 H       
  39 H39            5.0450   -10.9926     2.3497 H       
  40 H40            6.2727    -9.0688     3.4570 H       
  41 H41            5.1880    -9.2301     4.9399 H       
  42 H42            2.3085    -7.8915     1.5744 H       
  43 H43            3.3750    -7.2917     0.2818 H       
@<TRIPOS>BOND
   1    1   14 1
   2    1   27 1
   3    1   28 1
   4    1   29 1
   5    2    3 1
   6    3    4 ar
   7    3    8 ar
   8    4    5 ar
   9    4    9 1
  10    5    6 ar
  11    5   10 1
  12    6    7 ar
  13    6   30 1
  14    7    8 ar
  15    7   31 1
  16    8   18 1
  17    9   11 1
  18    9   32 1
  19   10   19 am
  20   10   33 1
  21   11   12 ar
  22   11   16 ar
  23   12   13 ar
  24   12   34 1
  25   13   14 ar
  26   13   35 1
  27   14   15 ar
  28   15   16 ar
  29   15   36 1
  30   16   17 1
  31   19   20 2
  32   19   21 2
  33   19   25 1
  34   22   23 1
  35   22   26 1
  36   22   24 1
  37   22   37 1
  38   23   24 1
  39   23   38 1
  40   23   39 1
  41   24   40 1
  42   24   41 1
  43   25   26 1
  44   25   42 1
  45   25   43 1

#	End of record

