#	Name: ASD01910428
#	Creating user name:	WinNT
#	Creation time:	15. 06. 2019 19:55

#	Modifying user name:	WinNT
#	Modification time:	15. 06. 2019 19:55

#	Program:	/corina/corina34_cracker 3.40 0067  02.08.2006

@<TRIPOS>MOLECULE
ASD01910428
  43   46    0    0    0
SMALL
NO_CHARGES


@<TRIPOS>ATOM
   1 C1             2.2917     0.0579     1.7749 C.ar    
   2 C2             2.2588    -1.2619     1.3541 C.ar    
   3 C3             3.2280    -1.7413     0.4875 C.ar    
   4 C4             4.2306    -0.9058     0.0404 C.ar    
   5 C5             4.2674     0.4223     0.4611 C.ar    
   6 C6             3.2905     0.9004     1.3322 C.ar    
   7 F7             1.2793    -2.0837     1.7903 F       
   8 C8             5.3441     1.3245    -0.0169 C.2     
   9 N9             5.5023     2.6277     0.3074 N.2     
  10 C10            6.5727     3.0229    -0.3358 C.2     
  11 O11            7.0303     1.9710    -1.0220 O.3     
  12 N12            6.3211     1.0067    -0.8261 N.2     
  13 C13            7.1748     4.4040    -0.3078 C.3     
  14 C14            8.6065     4.3264     0.2274 C.3     
  15 C15            9.2076     5.7325     0.2871 C.3     
  16 C16            9.2508     6.3254    -1.1248 C.3     
  17 N17            7.9009     6.2702    -1.7024 N.am    
  18 C18            7.1950     4.9818    -1.7265 C.3     
  19 C19            7.3213     7.3802    -2.2006 C.2     
  20 C20            7.9886     8.6869    -2.0594 C.2     
  21 O21            6.2477     7.3038    -2.7667 O.2     
  22 C22            8.6744     9.2440    -0.8833 C.2     
  23 N23            9.0946    10.4171    -1.2541 N.2     
  24 O24            8.8019    10.6680    -2.3974 O.3     
  25 C25            8.1288     9.6824    -2.9954 C.2     
  26 C26            7.6152     9.6691    -4.4121 C.3     
  27 H27            1.5319     0.4288     2.4468 H       
  28 H28            3.1987    -2.7707     0.1620 H       
  29 H29            4.9860    -1.2804    -0.6345 H       
  30 H30            3.3152     1.9291     1.6604 H       
  31 H31            6.5789     5.0477     0.3392 H       
  32 H32            8.5973     3.8927     1.2274 H       
  33 H33            9.2079     3.7021    -0.4334 H       
  34 H34            8.5927     6.3641     0.9282 H       
  35 H35           10.2188     5.6791     0.6903 H       
  36 H36            9.5852     7.3617    -1.0759 H       
  37 H37            9.9368     5.7466    -1.7433 H       
  38 H38            7.7134     4.2936    -2.3940 H       
  39 H39            6.1730     5.1316    -2.0746 H       
  40 H40            8.8017     8.7778     0.0826 H       
  41 H41            7.8760    10.6073    -4.9019 H       
  42 H42            8.0666     8.8383    -4.9545 H       
  43 H43            6.5315     9.5521    -4.4046 H       
@<TRIPOS>BOND
   1    1    2 ar
   2    1    6 ar
   3    1   27 1
   4    2    3 ar
   5    2    7 1
   6    3    4 ar
   7    3   28 1
   8    4    5 ar
   9    4   29 1
  10    5    6 ar
  11    5    8 1
  12    6   30 1
  13    8    9 1
  14    8   12 2
  15    9   10 2
  16   10   11 1
  17   10   13 1
  18   11   12 1
  19   13   14 1
  20   13   18 1
  21   13   31 1
  22   14   15 1
  23   14   32 1
  24   14   33 1
  25   15   16 1
  26   15   34 1
  27   15   35 1
  28   16   17 1
  29   16   36 1
  30   16   37 1
  31   17   18 1
  32   17   19 am
  33   18   38 1
  34   18   39 1
  35   19   20 1
  36   19   21 2
  37   20   22 1
  38   20   25 2
  39   22   23 2
  40   22   40 1
  41   23   24 1
  42   24   25 1
  43   25   26 1
  44   26   41 1
  45   26   42 1
  46   26   43 1

#	End of record

