#	Name: ASD00843394
#	Creating user name:	WinNT
#	Creation time:	15. 06. 2019 18:46

#	Modifying user name:	WinNT
#	Modification time:	15. 06. 2019 18:46

#	Program:	/corina/corina34_cracker 3.40 0067  02.08.2006

@<TRIPOS>MOLECULE
ASD00843394
  88   93    0    0    0
SMALL
NO_CHARGES


@<TRIPOS>ATOM
   1 N1             0.9742     1.1213    -0.0443 N.ar    
   2 C2             1.1554    -0.1398    -0.3990 C.ar    
   3 C3             1.0473    -1.1607     0.5369 C.ar    
   4 C4             0.7468    -0.8418     1.8494 C.ar    
   5 C5             0.5641     0.4938     2.1811 C.ar    
   6 C6             0.6867     1.4564     1.1993 C.ar    
   7 C7             1.2540    -2.5964     0.1280 C.3     
   8 C8             0.9413    -3.5267     1.2807 C.2     
   9 C9             0.3877    -2.9369    -1.0862 C.3     
  10 C10           -1.0518    -2.6084    -0.7842 C.2     
  11 N11           -2.0167    -2.9338    -1.6671 N.am    
  12 O12           -1.3419    -2.0514     0.2533 O.2     
  13 C13           -3.4114    -2.5221    -1.4468 C.3     
  14 C14           -3.9222    -1.8336    -2.7170 C.3     
  15 N15           -3.7107    -2.7198    -3.8693 N.3     
  16 C16           -2.2810    -2.9746    -4.0903 C.3     
  17 C17           -1.7019    -3.7046    -2.8795 C.3     
  18 N18           -4.3342    -2.1770    -5.0654 N.3     
  19 C19           -4.1227    -3.0635    -6.2182 C.3     
  20 C20           -4.8594    -2.4984    -7.4349 C.3     
  21 N21           -4.3649    -1.1439    -7.7182 N.3     
  22 C22           -4.5765    -0.2573    -6.5654 C.3     
  23 C23           -3.8397    -0.8224    -5.3487 C.3     
  24 H24           -3.3923    -1.1627    -7.9862 H       
  25 O25           -0.1281    -3.6458     1.8401 O.2     
  26 N26            2.0702    -4.1962     1.5671 N.am    
  27 C27            2.7133    -2.8582    -0.1683 C.ar    
  28 C28            3.1276    -3.8304     0.7390 C.ar    
  29 C29            3.5831    -2.3368    -1.0922 C.ar    
  30 C30            4.9087    -2.7837    -1.1299 C.ar    
  31 C31            5.3323    -3.7608    -0.2209 C.ar    
  32 C32            4.4483    -4.2777     0.7018 C.ar    
  33 F33            6.6100    -4.1988    -0.2491 F       
  34 C34            1.7910    -6.8899     2.0578 C.ar    
  35 C35            0.5106    -7.1259     1.5780 C.ar    
  36 C36            2.7548    -7.8766     1.9726 C.ar    
  37 C37            2.4465    -9.0998     1.4094 C.ar    
  38 C38            1.1672    -9.3408     0.9281 C.ar    
  39 C39            0.1986    -8.3529     1.0127 C.ar    
  40 O40            0.8644   -10.5444     0.3746 O.3     
  41 O41           -0.4369    -6.1553     1.6624 O.3     
  42 C42           -1.7331    -6.4677     1.1485 C.3     
  43 C43            1.9113   -11.5155     0.3206 C.3     
  44 O44            1.4491    -0.4393    -1.6892 O.3     
  45 C45            1.5056     0.6506    -2.6116 C.3     
  46 C46            1.9414     0.1348    -3.9846 C.3     
  47 F47            3.1662    -0.5307    -3.8655 F       
  48 F48            0.9763    -0.7494    -4.4784 F       
  49 S49            2.1903    -5.3283     2.7697 S.o2    
  50 O50            3.5643    -5.3898     3.1270 O.2     
  51 O51            1.1574    -5.0359     3.7008 O.2     
  52 C52            5.8245    -2.2463    -2.0907 C.1     
  53 N53            6.5510    -1.8199    -2.8529 N.1     
  54 H54            0.6561    -1.6144     2.5987 H       
  55 H55            0.3282     0.7767     3.1964 H       
  56 H56            0.5459     2.4969     1.4521 H       
  57 H57            0.7208    -2.3543    -1.9451 H       
  58 H58            0.4785    -3.9996    -1.3108 H       
  59 H59           -4.0229    -3.3992    -1.2346 H       
  60 H60           -3.4600    -1.8269    -0.6087 H       
  61 H61           -4.9860    -1.6204    -2.6125 H       
  62 H62           -3.3774    -0.9020    -2.8698 H       
  63 H63           -2.1545    -3.5889    -4.9818 H       
  64 H64           -1.7591    -2.0270    -4.2240 H       
  65 H65           -0.6210    -3.7939    -2.9882 H       
  66 H66           -2.1480    -4.6961    -2.8020 H       
  67 H67           -3.0567    -3.1283    -6.4364 H       
  68 H68           -4.5083    -4.0569    -5.9887 H       
  69 H69           -4.6801    -3.1390    -8.2984 H       
  70 H70           -5.9286    -2.4591    -7.2267 H       
  71 H71           -4.1909     0.7360    -6.7950 H       
  72 H72           -5.6424    -0.1925    -6.3473 H       
  73 H73           -4.0190    -0.1819    -4.4852 H       
  74 H74           -2.7705    -0.8618    -5.5569 H       
  75 H75            3.2456    -1.5837    -1.7889 H       
  76 H76            4.7804    -5.0314     1.4005 H       
  77 H77            3.7509    -7.6910     2.3467 H       
  78 H78            3.2016    -9.8691     1.3433 H       
  79 H79           -0.7975    -8.5386     0.6390 H       
  80 H80           -1.6551    -6.7095     0.0885 H       
  81 H81           -2.1411    -7.3230     1.6871 H       
  82 H82           -2.3919    -5.6090     1.2778 H       
  83 H83            2.2548   -11.7360     1.3313 H       
  84 H84            1.5369   -12.4281    -0.1431 H       
  85 H85            2.7409   -11.1231    -0.2675 H       
  86 H86            0.5204     1.1100    -2.6920 H       
  87 H87            2.2234     1.3901    -2.2567 H       
  88 H88            2.0495     0.9748    -4.6707 H       
@<TRIPOS>BOND
   1    1    2 ar
   2    1    6 ar
   3    2    3 ar
   4    2   44 1
   5    3    4 ar
   6    3    7 1
   7    4    5 ar
   8    4   54 1
   9    5    6 ar
  10    5   55 1
  11    6   56 1
  12    7    8 1
  13    7    9 1
  14    7   27 1
  15    8   25 2
  16    8   26 am
  17    9   10 1
  18    9   57 1
  19    9   58 1
  20   10   11 am
  21   10   12 2
  22   11   13 1
  23   11   17 1
  24   13   14 1
  25   13   59 1
  26   13   60 1
  27   14   15 1
  28   14   61 1
  29   14   62 1
  30   15   16 1
  31   15   18 1
  32   16   17 1
  33   16   63 1
  34   16   64 1
  35   17   65 1
  36   17   66 1
  37   18   19 1
  38   18   23 1
  39   19   20 1
  40   19   67 1
  41   19   68 1
  42   20   21 1
  43   20   69 1
  44   20   70 1
  45   21   22 1
  46   21   24 1
  47   22   23 1
  48   22   71 1
  49   22   72 1
  50   23   73 1
  51   23   74 1
  52   26   49 am
  53   26   28 1
  54   27   28 ar
  55   27   29 ar
  56   28   32 ar
  57   29   30 ar
  58   29   75 1
  59   30   31 ar
  60   30   52 1
  61   31   32 ar
  62   31   33 1
  63   32   76 1
  64   34   35 ar
  65   34   36 ar
  66   34   49 1
  67   35   41 1
  68   35   39 ar
  69   36   37 ar
  70   36   77 1
  71   37   38 ar
  72   37   78 1
  73   38   39 ar
  74   38   40 1
  75   39   79 1
  76   40   43 1
  77   41   42 1
  78   42   80 1
  79   42   81 1
  80   42   82 1
  81   43   83 1
  82   43   84 1
  83   43   85 1
  84   44   45 1
  85   45   46 1
  86   45   86 1
  87   45   87 1
  88   46   47 1
  89   46   48 1
  90   46   88 1
  91   49   50 2
  92   49   51 2
  93   52   53 3

#	End of record

