#	Name: ASD03540189
#	Creating user name:	WinNT
#	Creation time:	15. 06. 2019 20:42

#	Modifying user name:	WinNT
#	Modification time:	15. 06. 2019 20:42

#	Program:	/corina/corina34_cracker 3.40 0067  02.08.2006

@<TRIPOS>MOLECULE
ASD03540189
  47   50    0    0    0
SMALL
NO_CHARGES


@<TRIPOS>ATOM
   1 C1            -0.0157     1.3035     0.0092 C.2     
   2 N2             0.0021    -0.0041     0.0020 N.2     
   3 C3             1.1493    -0.7059    -0.0128 C.2     
   4 C4             2.3745    -0.0282    -0.0209 C.2     
   5 C5             2.3300     1.4477    -0.0128 C.2     
   6 N6             1.1227     2.0483     0.0023 N.am    
   7 C7             3.4711    -0.8881    -0.0352 C.2     
   8 C8             3.1786    -2.1986    -0.0389 C.2     
   9 S9             1.4401    -2.4412    -0.0239 S.3     
  10 C10            4.1702    -3.2741    -0.0541 C.2     
  11 O11            5.3570    -3.0071    -0.0645 O.2     
  12 O12            3.7685    -4.5622    -0.0566 O.3     
  13 O13            3.3558     2.1047    -0.0188 O.2     
  14 O14           -1.2067     1.9372     0.0182 O.3     
  15 C15           -2.3775     1.1178     0.0193 C.3     
  16 C16            1.0366     3.5108     0.0106 C.3     
  17 C17            1.0203     4.0050     1.4341 C.ar    
  18 C18            2.2079     4.3021     2.0762 C.ar    
  19 C19            2.1930     4.7554     3.3820 C.ar    
  20 C20            0.9905     4.9120     4.0456 C.ar    
  21 C21           -0.1971     4.6158     3.4033 C.ar    
  22 C22           -0.1825     4.1666     2.0960 C.ar    
  23 C23            4.7908    -5.5605    -0.0717 C.3     
  24 C24            4.1575    -6.9280    -0.0722 C.ar    
  25 C25            3.8552    -7.5492    -1.2696 C.ar    
  26 C26            3.2742    -8.8035    -1.2701 C.ar    
  27 C27            2.9960    -9.4369    -0.0733 C.ar    
  28 C28            3.2992    -8.8161     1.1241 C.ar    
  29 C29            3.8841    -7.5636     1.1245 C.ar    
  30 H30            4.4881    -0.5248    -0.0433 H       
  31 H31           -3.2644     1.7514     0.0269 H       
  32 H32           -2.3847     0.4933    -0.8741 H       
  33 H33           -2.3764     0.4837     0.9058 H       
  34 H34            1.8988     3.9284    -0.5092 H       
  35 H35            0.1220     3.8237    -0.4931 H       
  36 H36            3.1474     4.1797     1.5578 H       
  37 H37            3.1209     4.9869     3.8839 H       
  38 H38            0.9790     5.2655     5.0661 H       
  39 H39           -1.1366     4.7378     3.9218 H       
  40 H40           -1.1105     3.9387     1.5929 H       
  41 H41            5.4009    -5.4423    -0.9672 H       
  42 H42            5.4186    -5.4512     0.8127 H       
  43 H43            4.0726    -7.0544    -2.2046 H       
  44 H44            3.0374    -9.2886    -2.2055 H       
  45 H45            2.5415   -10.4166    -0.0737 H       
  46 H46            3.0815    -9.3107     2.0591 H       
  47 H47            4.1243    -7.0801     2.0599 H       
@<TRIPOS>BOND
   1    1    2 2
   2    1    6 1
   3    1   14 1
   4    2    3 1
   5    3    4 2
   6    3    9 1
   7    4    5 1
   8    4    7 1
   9    5    6 am
  10    5   13 2
  11    6   16 1
  12    7    8 2
  13    7   30 1
  14    8    9 1
  15    8   10 1
  16   10   11 2
  17   10   12 1
  18   12   23 1
  19   14   15 1
  20   15   31 1
  21   15   32 1
  22   15   33 1
  23   16   17 1
  24   16   34 1
  25   16   35 1
  26   17   18 ar
  27   17   22 ar
  28   18   19 ar
  29   18   36 1
  30   19   20 ar
  31   19   37 1
  32   20   21 ar
  33   20   38 1
  34   21   22 ar
  35   21   39 1
  36   22   40 1
  37   23   24 1
  38   23   41 1
  39   23   42 1
  40   24   25 ar
  41   24   29 ar
  42   25   26 ar
  43   25   43 1
  44   26   27 ar
  45   26   44 1
  46   27   28 ar
  47   27   45 1
  48   28   29 ar
  49   28   46 1
  50   29   47 1

#	End of record

