#	Name: ASD03240402
#	Creating user name:	WinNT
#	Creation time:	15. 06. 2019 20:34

#	Modifying user name:	WinNT
#	Modification time:	15. 06. 2019 20:34

#	Program:	/corina/corina34_cracker 3.40 0067  02.08.2006

@<TRIPOS>MOLECULE
ASD03240402
  45   48    0    0    0
SMALL
NO_CHARGES


@<TRIPOS>ATOM
   1 O1            -0.0164     1.3550     0.0095 O.3     
   2 C2             0.1301     0.0040     0.0387 C.ar    
   3 C3            -0.9853    -0.8133     0.1492 C.ar    
   4 C4             1.6247     3.8065    -2.0320 C.ar    
   5 C5             0.7944     3.3637    -1.0183 C.ar    
   6 C6             1.1594     2.1299    -0.2338 C.3     
   7 C7             1.2951     4.9359    -2.7537 C.ar    
   8 C8             0.1238     5.6302    -2.4596 C.ar    
   9 C9            -0.7086     5.1803    -1.4373 C.ar    
  10 C10           -0.3696     4.0496    -0.7218 C.ar    
  11 C11            1.7847     2.5406     1.1008 C.3     
  12 C12           -0.2355     6.8461    -3.2322 C.2     
  13 C13           -1.3461     7.6176    -3.0508 C.2     
  14 N14           -1.2972     8.6207    -3.9504 N.pl3   
  15 N15           -0.1303     8.4712    -4.7096 N.2     
  16 C16            0.5110     7.4162    -4.2817 C.2     
  17 N17            2.2492     1.3428     1.8131 N.3     
  18 C18            1.3948    -0.5594    -0.0475 C.ar    
  19 C19            1.5417    -1.9327    -0.0176 C.ar    
  20 C20            0.4284    -2.7461     0.0984 C.ar    
  21 C21           -0.8344    -2.1861     0.1788 C.ar    
  22 Cl22           0.6154    -4.4716     0.1352 Cl      
  23 C23            3.0659     1.7085     2.9854 C.3     
  24 C24            2.3473     0.5970     3.7631 C.3     
  25 C25            1.2217     0.8541     2.7515 C.3     
  26 H26           -1.9711    -0.3765     0.2123 H       
  27 H27            2.5348     3.2700    -2.2564 H       
  28 H28            1.8747     1.5360    -0.8027 H       
  29 H29            1.9443     5.2810    -3.5449 H       
  30 H30           -1.6178     5.7149    -1.2052 H       
  31 H31           -1.0144     3.6997     0.0707 H       
  32 H32            2.6294     3.2046     0.9173 H       
  33 H33            1.0408     3.0580     1.7067 H       
  34 H34           -2.1235     7.4545    -2.3191 H       
  35 H35           -1.9568     9.3243    -4.0540 H       
  36 H36            1.4469     7.0423    -4.6700 H       
  37 H37            2.2640     0.0751    -0.1384 H       
  38 H38            2.5261    -2.3718    -0.0851 H       
  39 H39           -1.7022    -2.8226     0.2696 H       
  40 H40            4.1311     1.5230     2.8475 H       
  41 H41            2.8572     2.7087     3.3651 H       
  42 H42            2.8134    -0.3842     3.6724 H       
  43 H43            2.0942     0.8624     4.7895 H       
  44 H44            0.5209     1.6264     3.0687 H       
  45 H45            0.7239    -0.0554     2.4152 H       
@<TRIPOS>BOND
   1    1    2 1
   2    1    6 1
   3    2    3 ar
   4    2   18 ar
   5    3   21 ar
   6    3   26 1
   7    4    5 ar
   8    4    7 ar
   9    4   27 1
  10    5    6 1
  11    5   10 ar
  12    6   11 1
  13    6   28 1
  14    7    8 ar
  15    7   29 1
  16    8    9 ar
  17    8   12 1
  18    9   10 ar
  19    9   30 1
  20   10   31 1
  21   11   17 1
  22   11   32 1
  23   11   33 1
  24   12   13 2
  25   12   16 1
  26   13   14 1
  27   13   34 1
  28   14   15 1
  29   14   35 1
  30   15   16 2
  31   16   36 1
  32   17   23 1
  33   17   25 1
  34   18   19 ar
  35   18   37 1
  36   19   20 ar
  37   19   38 1
  38   20   21 ar
  39   20   22 1
  40   21   39 1
  41   23   24 1
  42   23   40 1
  43   23   41 1
  44   24   25 1
  45   24   42 1
  46   24   43 1
  47   25   44 1
  48   25   45 1

#	End of record

