#	Name: ASD00570006
#	Creating user name:	WinNT
#	Creation time:	15. 06. 2019 18:36

#	Modifying user name:	WinNT
#	Modification time:	15. 06. 2019 18:36

#	Program:	/corina/corina34_cracker 3.40 0067  02.08.2006

@<TRIPOS>MOLECULE
ASD00570006
  60   63    0    0    0
SMALL
NO_CHARGES


@<TRIPOS>ATOM
   1 C1             8.0587    -1.8454    -6.1403 C.ar    
   2 C2             7.4762    -3.0034    -5.6414 C.ar    
   3 C3             7.0080    -3.0567    -4.3483 C.ar    
   4 C4             7.1193    -1.9329    -3.5249 C.ar    
   5 C5             7.7132    -0.7561    -4.0360 C.ar    
   6 C6             8.1802    -0.7245    -5.3489 C.ar    
   7 N7             6.6708    -1.9443    -2.2476 N.2     
   8 C8             6.7746    -0.8910    -1.4755 C.2     
   9 N9             7.3351     0.2854    -1.8908 N.am    
  10 C10            7.8170     0.4103    -3.1489 C.2     
  11 C11            7.4108     1.3695    -1.0067 C.ar    
  12 C12            6.2496     1.9900    -0.5657 C.ar    
  13 C13            6.3275     3.0582     0.3063 C.ar    
  14 C14            7.5603     3.5099     0.7402 C.ar    
  15 C15            8.7186     2.8943     0.3024 C.ar    
  16 C16            8.6470     1.8220    -0.5651 C.ar    
  17 S17            6.1634    -0.9946     0.1739 S.3     
  18 C18            5.4340    -2.6506     0.1353 C.3     
  19 C19            6.5247    -3.6761    -0.0370 C.2     
  20 C20            4.6914    -2.9115     1.4474 C.3     
  21 C21            3.5255    -1.9293     1.5776 C.3     
  22 C22            2.8584    -2.1076     2.9429 C.3     
  23 C23            1.6925    -1.1255     3.0730 C.3     
  24 N24            6.2466    -4.8669    -0.6038 N.am    
  25 C25            7.3302    -5.8149    -0.8683 C.3     
  26 C26            7.1273    -7.0737    -0.0192 C.3     
  27 S27            5.5102    -7.7994    -0.4174 S.o2    
  28 C28            4.4006    -6.3946    -0.1082 C.3     
  29 C29            4.8630    -5.2029    -0.9437 C.3     
  30 O30            7.6527    -3.4298     0.3342 O.2     
  31 O31            8.3184     1.4514    -3.5319 O.2     
  32 O32            5.4790    -8.1065    -1.8045 O.2     
  33 O33            5.2250    -8.8206     0.5287 O.2     
  34 H34            8.4237    -1.8250    -7.1566 H       
  35 H35            7.3893    -3.8728    -6.2763 H       
  36 H36            6.5563    -3.9625    -3.9718 H       
  37 H37            8.6341     0.1728    -5.7431 H       
  38 H38            5.2864     1.6379    -0.9045 H       
  39 H39            5.4246     3.5415     0.6493 H       
  40 H40            7.6187     4.3454     1.4220 H       
  41 H41            9.6801     3.2498     0.6425 H       
  42 H42            9.5520     1.3416    -0.9066 H       
  43 H43            4.7347    -2.7203    -0.6979 H       
  44 H44            4.3089    -3.9321     1.4517 H       
  45 H45            5.3756    -2.7763     2.2851 H       
  46 H46            3.8979    -0.9090     1.4856 H       
  47 H47            2.7977    -2.1228     0.7895 H       
  48 H48            2.4860    -3.1279     3.0348 H       
  49 H49            3.5862    -1.9141     3.7309 H       
  50 H50            2.0649    -0.1052     2.9811 H       
  51 H51            0.9647    -1.3190     2.2850 H       
  52 H52            1.2173    -1.2525     4.0457 H       
  53 H53            7.3271    -6.0847    -1.9243 H       
  54 H54            8.2852    -5.3552    -0.6138 H       
  55 H55            7.9149    -7.7939    -0.2405 H       
  56 H56            7.1585    -6.8097     1.0379 H       
  57 H57            3.3826    -6.6651    -0.3884 H       
  58 H58            4.4319    -6.1307     0.9489 H       
  59 H59            4.2206    -4.3460    -0.7407 H       
  60 H60            4.8055    -5.4571    -2.0020 H       
@<TRIPOS>BOND
   1    1    2 ar
   2    1    6 ar
   3    1   34 1
   4    2    3 ar
   5    2   35 1
   6    3    4 ar
   7    3   36 1
   8    4    5 ar
   9    4    7 1
  10    5    6 ar
  11    5   10 1
  12    6   37 1
  13    7    8 2
  14    8    9 1
  15    8   17 1
  16    9   10 am
  17    9   11 1
  18   10   31 2
  19   11   12 ar
  20   11   16 ar
  21   12   13 ar
  22   12   38 1
  23   13   14 ar
  24   13   39 1
  25   14   15 ar
  26   14   40 1
  27   15   16 ar
  28   15   41 1
  29   16   42 1
  30   17   18 1
  31   18   19 1
  32   18   20 1
  33   18   43 1
  34   19   24 am
  35   19   30 2
  36   20   21 1
  37   20   44 1
  38   20   45 1
  39   21   22 1
  40   21   46 1
  41   21   47 1
  42   22   23 1
  43   22   48 1
  44   22   49 1
  45   23   50 1
  46   23   51 1
  47   23   52 1
  48   24   25 1
  49   24   29 1
  50   25   26 1
  51   25   53 1
  52   25   54 1
  53   26   27 1
  54   26   55 1
  55   26   56 1
  56   27   28 1
  57   27   32 2
  58   27   33 2
  59   28   29 1
  60   28   57 1
  61   28   58 1
  62   29   59 1
  63   29   60 1

#	End of record

