#	Name: ASD01814254
#	Creating user name:	WinNT
#	Creation time:	15. 06. 2019 19:32

#	Modifying user name:	WinNT
#	Modification time:	15. 06. 2019 19:32

#	Program:	/corina/corina34_cracker 3.40 0067  02.08.2006

@<TRIPOS>MOLECULE
ASD01814254
  59   64    0    0    0
SMALL
NO_CHARGES


@<TRIPOS>ATOM
   1 C1            -0.0168     1.3869     0.0097 C.ar    
   2 C2             0.0021    -0.0041     0.0020 C.ar    
   3 C3             1.1801    -0.6897    -0.0129 C.ar    
   4 C4             2.3948     0.0129    -0.0207 C.ar    
   5 C5             2.3717     1.4290    -0.0129 C.ar    
   6 C6             1.1455     2.1015     0.0024 C.ar    
   7 C7             3.6293    -0.6694    -0.0365 C.ar    
   8 C8             4.8031     0.0063    -0.0446 C.ar    
   9 C9             4.8359     1.4095    -0.0374 C.ar    
  10 C10            3.6406     2.1511    -0.0211 C.ar    
  11 C11            6.1026     2.1526    -0.0470 C.2     
  12 N12            6.0328     3.5041    -0.0399 N.am    
  13 C13            4.8302     4.1313    -0.0241 C.2     
  14 N14            3.6961     3.4935    -0.0158 N.2     
  15 C15            3.6424    -2.1763    -0.0442 C.3     
  16 C16            3.5087    -2.6726    -1.4608 C.ar    
  17 C17            4.6381    -2.8926    -2.2363 C.ar    
  18 C18            4.4703    -3.3492    -3.5326 C.ar    
  19 C19            3.1848    -3.5703    -4.0101 C.ar    
  20 N20            2.1320    -3.3487    -3.2395 N.ar    
  21 C21            2.2604    -2.9189    -1.9994 C.ar    
  22 O22            7.1745     1.5748    -0.0604 O.2     
  23 N23            3.0014    -4.0310    -5.3174 N.pl3   
  24 C24            7.2655     4.2957    -0.0490 C.3     
  25 C25            7.3178     5.1723     1.2039 C.3     
  26 C26            8.6052     5.9990     1.1945 C.3     
  27 C27            8.6317     6.8873    -0.0509 C.3     
  28 C28            8.5794     6.0107    -1.3038 C.3     
  29 C29            7.2920     5.1840    -1.2944 C.3     
  30 C30            1.8092    -4.2896    -5.9151 C.2     
  31 C31            2.0659    -4.7143    -7.1736 C.2     
  32 C32            3.4537    -4.7165    -7.3539 C.2     
  33 N33            4.0140    -4.3023    -6.2467 N.2     
  34 O34            7.2930     4.3426     2.3671 O.3     
  35 H35           -0.9630     1.9076     0.0169 H       
  36 H36           -0.9305    -0.5488     0.0083 H       
  37 H37            1.1786    -1.7697    -0.0183 H       
  38 H38            1.1188     3.1811     0.0081 H       
  39 H39            5.7317    -0.5451    -0.0563 H       
  40 H40            4.8132     5.2111    -0.0182 H       
  41 H41            4.5813    -2.5336     0.3789 H       
  42 H42            2.8098    -2.5499     0.5518 H       
  43 H43            5.6255    -2.7114    -1.8380 H       
  44 H44            5.3274    -3.5307    -4.1641 H       
  45 H45            1.3782    -2.7494    -1.3999 H       
  46 H46            8.1264     3.6273    -0.0610 H       
  47 H47            6.4569     5.8406     1.2159 H       
  48 H48            8.6425     6.6235     2.0871 H       
  49 H49            9.4662     5.3306     1.1825 H       
  50 H50            7.7708     7.5557    -0.0389 H       
  51 H51            9.5489     7.4763    -0.0577 H       
  52 H52            8.5983     6.6436    -2.1911 H       
  53 H53            9.4403     5.3423    -1.3159 H       
  54 H54            7.2547     4.5595    -2.1870 H       
  55 H55            6.4311     5.8523    -1.2824 H       
  56 H56            0.8333    -4.1772    -5.4665 H       
  57 H57            1.3294    -5.0011    -7.9096 H       
  58 H58            3.9734    -5.0061    -8.2553 H       
  59 H59            7.3237     4.8324     3.2003 H       
@<TRIPOS>BOND
   1    1    2 ar
   2    1    6 ar
   3    1   35 1
   4    2    3 ar
   5    2   36 1
   6    3    4 ar
   7    3   37 1
   8    4    5 ar
   9    4    7 ar
  10    5    6 ar
  11    5   10 ar
  12    6   38 1
  13    7    8 ar
  14    7   15 1
  15    8    9 ar
  16    8   39 1
  17    9   10 ar
  18    9   11 1
  19   10   14 1
  20   11   12 am
  21   11   22 2
  22   12   13 1
  23   12   24 1
  24   13   14 2
  25   13   40 1
  26   15   16 1
  27   15   41 1
  28   15   42 1
  29   16   17 ar
  30   16   21 ar
  31   17   18 ar
  32   17   43 1
  33   18   19 ar
  34   18   44 1
  35   19   20 ar
  36   19   23 1
  37   20   21 ar
  38   21   45 1
  39   23   30 1
  40   23   33 1
  41   24   25 1
  42   24   29 1
  43   24   46 1
  44   25   26 1
  45   25   34 1
  46   25   47 1
  47   26   27 1
  48   26   48 1
  49   26   49 1
  50   27   28 1
  51   27   50 1
  52   27   51 1
  53   28   29 1
  54   28   52 1
  55   28   53 1
  56   29   54 1
  57   29   55 1
  58   30   31 2
  59   30   56 1
  60   31   32 1
  61   31   57 1
  62   32   33 2
  63   32   58 1
  64   34   59 1

#	End of record

