#	Name: ASD02508188
#	Creating user name:	WinNT
#	Creation time:	15. 06. 2019 20:23

#	Modifying user name:	WinNT
#	Modification time:	15. 06. 2019 20:23

#	Program:	/corina/corina34_cracker 3.40 0067  02.08.2006

@<TRIPOS>MOLECULE
ASD02508188
  36   38    0    0    0
SMALL
NO_CHARGES


@<TRIPOS>ATOM
   1 C1            -0.0168     1.3911     0.0097 C.ar    
   2 C2             0.0021    -0.0041     0.0020 C.ar    
   3 C3            -1.1670    -0.7436     0.0096 C.ar    
   4 C4            -2.3892    -0.1001     0.0251 C.ar    
   5 C5            -2.4296     1.2837     0.0330 C.ar    
   6 C6            -1.2699     2.0227     0.0305 C.ar    
   7 S7            -3.8842    -1.0326     0.0343 S.o2    
   8 N8            -4.2848    -1.3010     1.6186 N.am    
   9 C9            -4.6184    -0.2254     2.4473 C.ar    
  10 N10            1.2342     1.9813     0.0009 N.am    
  11 C11            2.3140     1.1938    -0.0136 C.2     
  12 S12            1.7082    -0.4709    -0.0168 S.3     
  13 O13           -4.8913    -0.1815    -0.4955 O.2     
  14 O14           -3.5687    -2.3022    -0.5204 O.2     
  15 C15            1.3727     3.4397     0.0069 C.3     
  16 O16            3.4782     1.5486    -0.0234 O.2     
  17 C17           -5.4808     0.7630     1.9906 C.ar    
  18 C18           -4.0926    -0.1467     3.7300 C.ar    
  19 C19           -4.4239     0.9166     4.5472 C.ar    
  20 C20           -5.2799     1.9032     4.0882 C.ar    
  21 C21           -5.8093     1.8243     2.8110 C.ar    
  22 F22           -5.6033     2.9418     4.8894 F       
  23 C23           -3.8536     1.0026     5.9395 C.3     
  24 H24           -1.1242    -1.8228     0.0030 H       
  25 H25           -3.3839     1.7892     0.0451 H       
  26 H26           -1.3241     3.1013     0.0371 H       
  27 H27           -4.2880    -2.2045     1.9717 H       
  28 H28            1.4167     3.7963     1.0360 H       
  29 H29            2.2881     3.7199    -0.5141 H       
  30 H30            0.5162     3.8881    -0.4966 H       
  31 H31           -5.8938     0.7019     0.9946 H       
  32 H32           -3.4254    -0.9165     4.0887 H       
  33 H33           -6.4768     2.5950     2.4550 H       
  34 H34           -2.9124     1.5518     5.9133 H       
  35 H35           -4.5586     1.5206     6.5896 H       
  36 H36           -3.6772    -0.0026     6.3225 H       
@<TRIPOS>BOND
   1    1    2 ar
   2    1   10 1
   3    1    6 ar
   4    2    3 ar
   5    2   12 1
   6    3    4 ar
   7    3   24 1
   8    4    5 ar
   9    4    7 1
  10    5    6 ar
  11    5   25 1
  12    6   26 1
  13    7    8 am
  14    7   13 2
  15    7   14 2
  16    8    9 1
  17    8   27 1
  18    9   17 ar
  19    9   18 ar
  20   10   11 am
  21   10   15 1
  22   11   12 1
  23   11   16 2
  24   15   28 1
  25   15   29 1
  26   15   30 1
  27   17   21 ar
  28   17   31 1
  29   18   19 ar
  30   18   32 1
  31   19   20 ar
  32   19   23 1
  33   20   21 ar
  34   20   22 1
  35   21   33 1
  36   23   34 1
  37   23   35 1
  38   23   36 1

#	End of record

