#	Name: ASD03200046
#	Creating user name:	WinNT
#	Creation time:	15. 06. 2019 20:34

#	Modifying user name:	WinNT
#	Modification time:	15. 06. 2019 20:34

#	Program:	/corina/corina34_cracker 3.40 0067  02.08.2006

@<TRIPOS>MOLECULE
ASD03200046
  48   51    0    0    0
SMALL
NO_CHARGES


@<TRIPOS>ATOM
   1 C1             0.9644    -1.0264    -0.1624 C.3     
   2 N2            -0.0341     0.0388    -0.0050 N.3     
   3 C3             0.2968     0.9137     1.1271 C.3     
   4 C4             1.6447     1.5921     0.8723 C.3     
   5 C5             2.7249     0.5209     0.6983 C.3     
   6 C6             2.3323    -0.4059    -0.4557 C.3     
   7 C7            -1.3150    -0.4935     0.1328 C.ar    
   8 C8            -2.0205    -0.3591     1.3260 C.ar    
   9 C9            -3.2865    -0.9003     1.4229 C.ar    
  10 N10           -3.8316    -1.5394     0.4053 N.ar    
  11 C11           -3.2002    -1.6908    -0.7438 C.ar    
  12 C12           -1.9288    -1.1726    -0.9266 C.ar    
  13 N13           -1.2627    -1.3355    -2.1487 N.am    
  14 C14           -1.4472    -2.4575    -2.8724 C.2     
  15 C15           -0.8486    -2.5759    -4.2129 C.2     
  16 O16           -2.1081    -3.3723    -2.4184 O.2     
  17 C17           -1.0828    -3.6345    -5.0205 C.2     
  18 S18           -0.2245    -3.4227    -6.4844 S.3     
  19 C19            0.4133    -1.8866    -5.9090 C.2     
  20 N20           -0.0453    -1.6491    -4.7174 N.2     
  21 C21            1.3242    -1.0017    -6.6664 C.ar    
  22 N22            1.9852     2.4509     2.0144 N.3     
  23 C23            1.6639    -1.3085    -7.9870 C.ar    
  24 C24            2.5160    -0.4763    -8.6881 C.ar    
  25 C25            3.0312     0.6567    -8.0851 C.ar    
  26 C26            2.6985     0.9647    -6.7780 C.ar    
  27 C27            1.8440     0.1462    -6.0681 C.ar    
  28 F28            1.1611    -2.4154    -8.5762 F       
  29 H29            1.0200    -1.6106     0.7561 H       
  30 H30            0.6755    -1.6758    -0.9888 H       
  31 H31           -0.4771     1.6734     1.2372 H       
  32 H32            0.3555     0.3204     2.0395 H       
  33 H33            1.5826     2.1966    -0.0326 H       
  34 H34            3.6786     0.9984     0.4736 H       
  35 H35            2.8142    -0.0589     1.6169 H       
  36 H36            3.0761    -1.1961    -0.5569 H       
  37 H37            2.2810     0.1672    -1.3814 H       
  38 H38           -1.5826     0.1615     2.1647 H       
  39 H39           -3.8389    -0.7996     2.3455 H       
  40 H40           -3.6819    -2.2210    -1.5520 H       
  41 H41           -0.6688    -0.6409    -2.4738 H       
  42 H42           -1.7111    -4.4792    -4.7795 H       
  43 H43            2.8718     2.9102     1.8698 H       
  44 H44            1.2542     3.1235     2.1917 H       
  45 H45            2.7803    -0.7114    -9.7086 H       
  46 H46            3.6967     1.3039    -8.6370 H       
  47 H47            3.1053     1.8507    -6.3133 H       
  48 H48            1.5858     0.3887    -5.0478 H       
@<TRIPOS>BOND
   1    1    2 1
   2    1    6 1
   3    1   29 1
   4    1   30 1
   5    2    3 1
   6    2    7 1
   7    3    4 1
   8    3   31 1
   9    3   32 1
  10    4    5 1
  11    4   22 1
  12    4   33 1
  13    5    6 1
  14    5   34 1
  15    5   35 1
  16    6   36 1
  17    6   37 1
  18    7    8 ar
  19    7   12 ar
  20    8    9 ar
  21    8   38 1
  22    9   10 ar
  23    9   39 1
  24   10   11 ar
  25   11   12 ar
  26   11   40 1
  27   12   13 1
  28   13   14 am
  29   13   41 1
  30   14   15 1
  31   14   16 2
  32   15   17 2
  33   15   20 1
  34   17   18 1
  35   17   42 1
  36   18   19 1
  37   19   20 2
  38   19   21 1
  39   21   23 ar
  40   21   27 ar
  41   22   43 1
  42   22   44 1
  43   23   24 ar
  44   23   28 1
  45   24   25 ar
  46   24   45 1
  47   25   26 ar
  48   25   46 1
  49   26   27 ar
  50   26   47 1
  51   27   48 1

#	End of record

