#	Name: ASD00069480
#	Creating user name:	WinNT
#	Creation time:	15. 06. 2019 18:29

#	Modifying user name:	WinNT
#	Modification time:	15. 06. 2019 18:29

#	Program:	/corina/corina34_cracker 3.40 0067  02.08.2006

@<TRIPOS>MOLECULE
ASD00069480
  38   39    0    0    0
SMALL
NO_CHARGES


@<TRIPOS>ATOM
   1 O1            -0.0202     1.4309     0.0086 O.3     
   2 B2             0.0014    -0.0036     0.0029 Du      
   3 O3             1.0713    -0.3526    -0.8871 O.3     
   4 C4            -0.9391    -0.9781     0.7970 C.ar    
   5 C5            -0.7937    -2.3594     0.6874 C.ar    
   6 C6            -1.9404    -0.4825     1.6368 C.ar    
   7 C7            -2.7475    -1.3707     2.3190 C.ar    
   8 N8            -2.5853    -2.6729     2.1886 N.ar    
   9 C9            -1.6482    -3.1860     1.4090 C.ar    
  10 C10            2.1103     0.6081    -0.6037 C.3     
  11 C11            1.3702     1.8173     0.0036 C.3     
  12 C12            1.5753     3.0594    -0.8659 C.3     
  13 C13            1.8563     2.0779     1.4308 C.3     
  14 C14            3.1079     0.0328     0.4036 C.3     
  15 C15            2.8269     1.0143    -1.8930 C.3     
  16 N16           -1.5185    -4.5703     1.3060 N.am    
  17 O17           -2.9928    -4.9010     2.9304 O.2     
  18 C18           -2.2715    -5.3771     2.0796 C.2     
  19 C19           -2.2171    -6.8708     1.8875 C.3     
  20 H20           -0.0295    -2.7817     0.0517 H       
  21 H21           -2.0807     0.5823     1.7508 H       
  22 H22           -3.5229    -0.9936     2.9694 H       
  23 H23            1.1860     2.8709    -1.8664 H       
  24 H24            1.0467     3.9038    -0.4235 H       
  25 H25            2.6392     3.2885    -0.9271 H       
  26 H26            2.9261     2.2863     1.4179 H       
  27 H27            1.3243     2.9343     1.8451 H       
  28 H28            1.6647     1.1988     2.0461 H       
  29 H29            3.5798    -0.8544    -0.0186 H       
  30 H30            3.8706     0.7789     0.6262 H       
  31 H31            2.5839    -0.2361     1.3208 H       
  32 H32            2.1052     1.4363    -2.5924 H       
  33 H33            3.5902     1.7583    -1.6655 H       
  34 H34            3.2958     0.1375    -2.3397 H       
  35 H35           -0.8864    -4.9528     0.6775 H       
  36 H36           -1.5197    -7.1087     1.0844 H       
  37 H37           -1.8831    -7.3440     2.8109 H       
  38 H38           -3.2094    -7.2401     1.6283 H       
@<TRIPOS>BOND
   1    1    2 1
   2    1   11 1
   3    2    3 1
   4    2    4 1
   5    3   10 1
   6    4    5 ar
   7    4    6 ar
   8    5    9 ar
   9    5   20 1
  10    6    7 ar
  11    6   21 1
  12    7    8 ar
  13    7   22 1
  14    8    9 ar
  15    9   16 1
  16   10   11 1
  17   10   14 1
  18   10   15 1
  19   11   12 1
  20   11   13 1
  21   12   23 1
  22   12   24 1
  23   12   25 1
  24   13   26 1
  25   13   27 1
  26   13   28 1
  27   14   29 1
  28   14   30 1
  29   14   31 1
  30   15   32 1
  31   15   33 1
  32   15   34 1
  33   16   18 am
  34   16   35 1
  35   17   18 2
  36   18   19 1
  37   19   36 1
  38   19   37 1
  39   19   38 1

#	End of record

