#	Name: ASD01911143
#	Creating user name:	WinNT
#	Creation time:	15. 06. 2019 19:57

#	Modifying user name:	WinNT
#	Modification time:	15. 06. 2019 19:57

#	Program:	/corina/corina34_cracker 3.40 0067  02.08.2006

@<TRIPOS>MOLECULE
ASD01911143
  47   50    0    0    0
SMALL
NO_CHARGES


@<TRIPOS>ATOM
   1 C1            -0.0167     1.3769     0.0096 C.ar    
   2 C2             0.0021    -0.0041     0.0020 C.ar    
   3 C3             1.2148    -0.6805    -0.0132 C.ar    
   4 C4             2.4052     0.0345    -0.0208 C.ar    
   5 C5             2.3798     1.4153    -0.0132 C.ar    
   6 C6             1.1705     2.0860     0.0021 C.ar    
   7 N7             1.2372    -2.0811    -0.0205 N.pl3   
   8 N8             0.3284    -2.9225     0.6337 N.2     
   9 C9             0.6734    -4.1703     0.3941 C.2     
  10 C10            1.8186    -4.1605    -0.4244 C.2     
  11 C11            2.1429    -2.8640    -0.6698 C.2     
  12 C12           -0.0240    -5.3784     0.9002 C.ar    
  13 C13           -1.1529    -5.2478     1.7066 C.ar    
  14 C14           -1.7979    -6.3749     2.1741 C.ar    
  15 C15           -1.3257    -7.6323     1.8436 C.ar    
  16 C16           -0.2055    -7.7678     1.0435 C.ar    
  17 C17            0.4442    -6.6476     0.5660 C.ar    
  18 N18            3.2151    -2.4156    -1.4407 N.am    
  19 C19            4.0442    -3.3042    -2.0233 C.2     
  20 C20            5.2028    -2.8197    -2.8564 C.3     
  21 O21            3.8579    -4.4937    -1.8771 O.2     
  22 C22            5.9815    -4.0218    -3.3995 C.3     
  23 C23            7.1081    -3.5220    -4.3076 C.3     
  24 O24            6.5535    -2.7342    -5.3629 O.3     
  25 C25            5.8541    -1.5706    -4.9168 C.3     
  26 C26            4.6771    -1.9919    -4.0331 C.3     
  27 H27           -0.9595     1.9036     0.0169 H       
  28 H28           -0.9254    -0.5573     0.0083 H       
  29 H29            3.3499    -0.4887    -0.0323 H       
  30 H30            3.3053     1.9719    -0.0190 H       
  31 H31            1.1533     3.1658     0.0080 H       
  32 H32            2.3437    -5.0286    -0.7945 H       
  33 H33           -1.5222    -4.2665     1.9655 H       
  34 H34           -2.6727    -6.2748     2.7995 H       
  35 H35           -1.8332    -8.5116     2.2119 H       
  36 H36            0.1592    -8.7519     0.7888 H       
  37 H37            1.3185    -6.7545    -0.0589 H       
  38 H38            3.3641    -1.4643    -1.5576 H       
  39 H39            5.8617    -2.2056    -2.2425 H       
  40 H40            6.4061    -4.5860    -2.5691 H       
  41 H41            5.3101    -4.6626    -3.9710 H       
  42 H42            7.8013    -2.9143    -3.7260 H       
  43 H43            7.6390    -4.3747    -4.7309 H       
  44 H44            6.5309    -0.9373    -4.3431 H       
  45 H45            5.4816    -1.0175    -5.7790 H       
  46 H46            3.9793    -2.5918    -4.6175 H       
  47 H47            4.1688    -1.1045    -3.6560 H       
@<TRIPOS>BOND
   1    1    2 ar
   2    1    6 ar
   3    1   27 1
   4    2    3 ar
   5    2   28 1
   6    3    4 ar
   7    3    7 1
   8    4    5 ar
   9    4   29 1
  10    5    6 ar
  11    5   30 1
  12    6   31 1
  13    7    8 1
  14    7   11 1
  15    8    9 2
  16    9   10 1
  17    9   12 1
  18   10   11 2
  19   10   32 1
  20   11   18 1
  21   12   13 ar
  22   12   17 ar
  23   13   14 ar
  24   13   33 1
  25   14   15 ar
  26   14   34 1
  27   15   16 ar
  28   15   35 1
  29   16   17 ar
  30   16   36 1
  31   17   37 1
  32   18   19 am
  33   18   38 1
  34   19   20 1
  35   19   21 2
  36   20   22 1
  37   20   26 1
  38   20   39 1
  39   22   23 1
  40   22   40 1
  41   22   41 1
  42   23   24 1
  43   23   42 1
  44   23   43 1
  45   24   25 1
  46   25   26 1
  47   25   44 1
  48   25   45 1
  49   26   46 1
  50   26   47 1

#	End of record

