#	Name: ASD01901290
#	Creating user name:	WinNT
#	Creation time:	15. 06. 2019 19:53

#	Modifying user name:	WinNT
#	Modification time:	15. 06. 2019 19:53

#	Program:	/corina/corina34_cracker 3.40 0067  02.08.2006

@<TRIPOS>MOLECULE
ASD01901290
  43   46    0    0    0
SMALL
NO_CHARGES


@<TRIPOS>ATOM
   1 C1            -0.0166     1.3750     0.0096 C.ar    
   2 C2             0.0021    -0.0041     0.0020 C.ar    
   3 C3             1.2078    -0.6830    -0.0127 C.ar    
   4 C4             2.4027     0.0149    -0.0199 C.ar    
   5 C5             2.3997     1.3941    -0.0129 C.ar    
   6 C6             1.1860     2.0866     0.0019 C.ar    
   7 C7             1.1748     3.5185     0.0093 C.1     
   8 C8             1.1656     4.6925     0.0153 C.1     
   9 C9             1.1543     6.1244     0.0226 C.ar    
  10 C10           -0.0678     8.1952     0.0502 C.ar    
  11 C11           -0.0607     6.8154     0.0432 C.ar    
  12 C12            2.3584     6.8345     0.0149 C.ar    
  13 C13            2.3438     8.2143     0.0220 C.ar    
  14 C14            1.1325     8.8989     0.0367 C.ar    
  15 N15            1.1215    10.3004     0.0433 N.am    
  16 N16            1.0828    12.3133    -1.1675 N.am    
  17 C17            1.0944    10.9677    -1.1232 C.2     
  18 C18            1.1326    10.9594     1.2207 C.2     
  19 C19            1.0537    13.0023    -2.4600 C.3     
  20 O20            1.1530    10.3435     2.2714 O.2     
  21 O21            1.0803    10.3402    -2.1647 O.2     
  22 C22            1.0983    13.0473     0.0074 C.2     
  23 F23           -1.2417     8.8638     0.0697 F       
  24 F24            3.5071     8.9014     0.0150 F       
  25 C25            1.1070    14.5337     1.5794 C.2     
  26 N26            1.0931    14.3540     0.2832 N.2     
  27 C27            1.1210    12.3705     1.2206 C.2     
  28 N28            1.1261    13.3398     2.2037 N.pl3   
  29 C29            1.1488    13.1133     3.6509 C.3     
  30 H30           -0.9584     1.9035     0.0169 H       
  31 H31           -0.9266    -0.5554     0.0079 H       
  32 H32            1.2163    -1.7630    -0.0182 H       
  33 H33            3.3399    -0.5217    -0.0306 H       
  34 H34            3.3331     1.9374    -0.0182 H       
  35 H35           -0.9928     6.2699     0.0533 H       
  36 H36            3.2989     6.3038     0.0038 H       
  37 H37            1.0448    12.2663    -3.2640 H       
  38 H38            0.1575    13.6195    -2.5226 H       
  39 H39            1.9371    13.6337    -2.5552 H       
  40 H40            1.1072    15.4939     2.0739 H       
  41 H41            0.1270    13.0480     4.0245 H       
  42 H42            1.6741    12.1824     3.8647 H       
  43 H43            1.6624    13.9409     4.1401 H       
@<TRIPOS>BOND
   1    1    2 ar
   2    1    6 ar
   3    1   30 1
   4    2    3 ar
   5    2   31 1
   6    3    4 ar
   7    3   32 1
   8    4    5 ar
   9    4   33 1
  10    5    6 ar
  11    5   34 1
  12    6    7 1
  13    7    8 3
  14    8    9 1
  15    9   12 ar
  16    9   11 ar
  17   10   11 ar
  18   10   14 ar
  19   10   23 1
  20   11   35 1
  21   12   13 ar
  22   12   36 1
  23   13   14 ar
  24   13   24 1
  25   14   15 1
  26   15   18 am
  27   15   17 am
  28   16   17 am
  29   16   22 1
  30   16   19 1
  31   17   21 2
  32   18   27 1
  33   18   20 2
  34   19   37 1
  35   19   38 1
  36   19   39 1
  37   22   27 2
  38   22   26 1
  39   25   26 2
  40   25   28 1
  41   25   40 1
  42   27   28 1
  43   28   29 1
  44   29   41 1
  45   29   42 1
  46   29   43 1

#	End of record

