#	Name: ASD01001212
#	Creating user name:	WinNT
#	Creation time:	15. 06. 2019 18:55

#	Modifying user name:	WinNT
#	Modification time:	15. 06. 2019 18:55

#	Program:	/corina/corina34_cracker 3.40 0067  02.08.2006

@<TRIPOS>MOLECULE
ASD01001212
  63   66    0    0    0
SMALL
NO_CHARGES


@<TRIPOS>ATOM
   1 C1            -0.0187     1.5272     0.0104 C.3     
   2 C2             1.4084     2.0618    -0.0003 C.3     
   3 C3             0.0021    -0.0041     0.0020 C.3     
   4 C4             2.1305     1.7029     1.2996 C.3     
   5 C5             2.2029     1.4764    -1.1671 C.3     
   6 C6             0.7960    -0.4762    -1.2203 C.3     
   7 N7             3.3929     2.4442     1.3519 N.3     
   8 C8             1.2710     2.0834     2.4776 C.ar    
   9 C9             3.6552     1.8669    -1.0107 C.ar    
  10 C10            0.8513    -2.0052    -1.2354 C.3     
  11 C11            4.1645     2.3100     0.1960 C.ar    
  12 C12            4.4802     1.7696    -2.1196 C.ar    
  13 C13            5.5186     2.6486     0.2822 C.ar    
  14 C14            6.3360     2.5472    -0.8248 C.ar    
  15 C15            5.8168     2.1084    -2.0300 C.ar    
  16 H16            3.2326     3.4165     1.5687 H       
  17 O17            2.1211     0.0487    -1.1457 O.3     
  18 Br18           6.9334     1.9724    -3.5501 Br      
  19 C19            0.5251     1.1191     3.1292 C.ar    
  20 C20           -0.2633     1.4682     4.2096 C.ar    
  21 C21           -0.3054     2.7815     4.6388 C.ar    
  22 C22            0.4412     3.7457     3.9878 C.ar    
  23 C23            1.2329     3.3958     2.9100 C.ar    
  24 N24            1.6107    -2.4549    -2.4047 N.am    
  25 C25            1.7909    -3.7722    -2.6254 C.2     
  26 C26            2.5721    -4.2347    -3.8282 C.3     
  27 C27            2.6274    -5.7637    -3.8433 C.3     
  28 O28            1.3243    -4.5853    -1.8560 O.2     
  29 C29            3.4205    -6.2333    -5.0645 C.3     
  30 N30            3.4736    -7.7013    -5.0790 N.3     
  31 C31            4.0172    -8.1959    -6.3509 C.3     
  32 C32            4.2498    -8.2112    -3.9409 C.3     
  33 F33            6.0296     3.0781     1.4567 F       
  34 H34           -0.5304     1.8778     0.9067 H       
  35 H35           -0.5474     1.8874    -0.8721 H       
  36 H36            1.3845     3.1460    -0.1096 H       
  37 H37            0.4797    -0.3684     0.9115 H       
  38 H38           -1.0181    -0.3834    -0.0556 H       
  39 H39            2.3335     0.6322     1.3220 H       
  40 H40            1.8161     1.8669    -2.1083 H       
  41 H41            0.3119    -0.1199    -2.1296 H       
  42 H42            1.3385    -2.3601    -0.3273 H       
  43 H43           -0.1616    -2.4049    -1.2843 H       
  44 H44            4.0759     1.4262    -3.0604 H       
  45 H45            7.3807     2.8105    -0.7507 H       
  46 H46            0.5580     0.0930     2.7939 H       
  47 H47           -0.8466     0.7149     4.7183 H       
  48 H48           -0.9220     3.0544     5.4825 H       
  49 H49            0.4080     4.7719     4.3229 H       
  50 H50            1.8162     4.1491     2.4014 H       
  51 H51            1.9839    -1.8045    -3.0201 H       
  52 H52            2.0849    -3.8798    -4.7364 H       
  53 H53            3.5850    -3.8350    -3.7793 H       
  54 H54            3.1146    -6.1186    -2.9352 H       
  55 H55            1.6145    -6.1634    -3.8922 H       
  56 H56            2.9333    -5.8784    -5.9727 H       
  57 H57            4.4334    -5.8336    -5.0156 H       
  58 H58            5.0265    -7.8083    -6.4899 H       
  59 H59            4.0455    -9.2854    -6.3348 H       
  60 H60            3.3832    -7.8610    -7.1718 H       
  61 H61            3.7848    -7.8875    -3.0097 H       
  62 H62            4.2731    -9.3004    -3.9758 H       
  63 H63            5.2675    -7.8242    -3.9925 H       
@<TRIPOS>BOND
   1    1    3 1
   2    1    2 1
   3    1   34 1
   4    1   35 1
   5    2    4 1
   6    2    5 1
   7    2   36 1
   8    3    6 1
   9    3   37 1
  10    3   38 1
  11    4    7 1
  12    4    8 1
  13    4   39 1
  14    5    9 1
  15    5   17 1
  16    5   40 1
  17    6   10 1
  18    6   17 1
  19    6   41 1
  20    7   11 1
  21    7   16 1
  22    8   19 ar
  23    8   23 ar
  24    9   11 ar
  25    9   12 ar
  26   10   24 1
  27   10   42 1
  28   10   43 1
  29   11   13 ar
  30   12   15 ar
  31   12   44 1
  32   13   14 ar
  33   13   33 1
  34   14   15 ar
  35   14   45 1
  36   15   18 1
  37   19   20 ar
  38   19   46 1
  39   20   21 ar
  40   20   47 1
  41   21   22 ar
  42   21   48 1
  43   22   23 ar
  44   22   49 1
  45   23   50 1
  46   24   25 am
  47   24   51 1
  48   25   26 1
  49   25   28 2
  50   26   27 1
  51   26   52 1
  52   26   53 1
  53   27   29 1
  54   27   54 1
  55   27   55 1
  56   29   30 1
  57   29   56 1
  58   29   57 1
  59   30   31 1
  60   30   32 1
  61   31   58 1
  62   31   59 1
  63   31   60 1
  64   32   61 1
  65   32   62 1
  66   32   63 1

#	End of record

