#	Name: ASD01810885
#	Creating user name:	WinNT
#	Creation time:	15. 06. 2019 19:25

#	Modifying user name:	WinNT
#	Modification time:	15. 06. 2019 19:25

#	Program:	/corina/corina34_cracker 3.40 0067  02.08.2006

@<TRIPOS>MOLECULE
ASD01810885
  56   60    0    0    0
SMALL
NO_CHARGES


@<TRIPOS>ATOM
   1 C1            -0.0170     1.4035     0.0098 C.ar    
   2 C2             0.0021    -0.0041     0.0020 C.ar    
   3 C3             1.2240    -0.6955    -0.0131 C.ar    
   4 C4             2.4054    -0.0325    -0.0199 C.ar    
   5 C5             2.4529     1.3757    -0.0126 C.ar    
   6 C6             3.6806     2.0620    -0.0195 C.ar    
   7 C7             3.6578     3.4288    -0.0119 C.ar    
   8 C8             2.4399     4.1023     0.0022 C.ar    
   9 N9             1.2971     3.4563     0.0091 N.ar    
  10 C10            1.2528     2.1263     0.0015 C.ar    
  11 C11           -1.2812    -0.7141     0.0106 C.2     
  12 N12           -2.4226     0.0049     0.0255 N.am    
  13 C13           -2.4070     1.3678     0.0325 C.2     
  14 C14           -1.2603     2.0731     0.0311 C.2     
  15 O15           -1.3159    -1.9320     0.0041 O.2     
  16 C16            3.6928    -0.8157    -0.0351 C.3     
  17 C17            3.8165    -2.0683     2.1316 C.ar    
  18 C18            4.1986    -0.9783     1.3751 C.ar    
  19 C19            5.0540    -0.0335     1.9267 C.ar    
  20 C20            5.4956    -0.2202     3.2240 C.ar    
  21 C21            5.0702    -1.3422     3.9287 C.ar    
  22 N22            4.2533    -2.2212     3.3671 N.ar    
  23 S23            5.6232    -1.5964     5.5823 S.3     
  24 C24            4.8126    -3.1506     6.0493 C.3     
  25 C25           -3.7092    -0.6957     0.0338 C.3     
  26 C26           -4.5138    -0.2991    -1.2057 C.3     
  27 C27           -5.8574    -1.0308    -1.1971 C.3     
  28 C28           -6.6384    -0.6483     0.0618 C.3     
  29 C29           -5.8338    -1.0448     1.3013 C.3     
  30 C30           -4.4901    -0.3131     1.2926 C.3     
  31 O31           -3.7844    -0.6564    -2.3815 O.3     
  32 H32            1.2221    -1.7755    -0.0190 H       
  33 H33            4.6166     1.5233    -0.0302 H       
  34 H34            4.5835     3.9851    -0.0166 H       
  35 H35            2.4349     5.1823     0.0081 H       
  36 H36           -3.3466     1.9001     0.0444 H       
  37 H37           -1.2913     3.1526     0.0371 H       
  38 H38            3.5154    -1.7980    -0.4730 H       
  39 H39            4.4356    -0.2823    -0.6283 H       
  40 H40            3.1478    -2.8030     1.7080 H       
  41 H41            5.3676     0.8276     1.3552 H       
  42 H42            6.1618     0.4948     3.6837 H       
  43 H43            5.1322    -3.9443     5.3740 H       
  44 H44            5.0873    -3.4108     7.0715 H       
  45 H45            3.7313    -3.0306     5.9830 H       
  46 H46           -3.5369    -1.7719     0.0261 H       
  47 H47           -4.6861     0.7771    -1.1980 H       
  48 H48           -6.4307    -0.7483    -2.0801 H       
  49 H49           -5.6852    -2.1071    -1.2047 H       
  50 H50           -6.8107     0.4280     0.0695 H       
  51 H51           -7.5956    -1.1695     0.0680 H       
  52 H52           -6.3901    -0.7723     2.1981 H       
  53 H53           -5.6615    -2.1211     1.2936 H       
  54 H54           -3.9169    -0.5956     2.1756 H       
  55 H55           -4.6624     0.7631     1.3003 H       
  56 H56           -4.2358    -0.4338    -3.2072 H       
@<TRIPOS>BOND
   1    1    2 ar
   2    1   10 ar
   3    1   14 1
   4    2    3 ar
   5    2   11 1
   6    3    4 ar
   7    3   32 1
   8    4    5 ar
   9    4   16 1
  10    5    6 ar
  11    5   10 ar
  12    6    7 ar
  13    6   33 1
  14    7    8 ar
  15    7   34 1
  16    8    9 ar
  17    8   35 1
  18    9   10 ar
  19   11   12 am
  20   11   15 2
  21   12   13 1
  22   12   25 1
  23   13   14 2
  24   13   36 1
  25   14   37 1
  26   16   18 1
  27   16   38 1
  28   16   39 1
  29   17   18 ar
  30   17   22 ar
  31   17   40 1
  32   18   19 ar
  33   19   20 ar
  34   19   41 1
  35   20   21 ar
  36   20   42 1
  37   21   22 ar
  38   21   23 1
  39   23   24 1
  40   24   43 1
  41   24   44 1
  42   24   45 1
  43   25   26 1
  44   25   30 1
  45   25   46 1
  46   26   27 1
  47   26   31 1
  48   26   47 1
  49   27   28 1
  50   27   48 1
  51   27   49 1
  52   28   29 1
  53   28   50 1
  54   28   51 1
  55   29   30 1
  56   29   52 1
  57   29   53 1
  58   30   54 1
  59   30   55 1
  60   31   56 1

#	End of record

