#	Name: ASD00170093
#	Creating user name:	WinNT
#	Creation time:	15. 06. 2019 18:31

#	Modifying user name:	WinNT
#	Modification time:	15. 06. 2019 18:31

#	Program:	/corina/corina34_cracker 3.40 0067  02.08.2006

@<TRIPOS>MOLECULE
ASD00170093
  46   49    0    0    0
SMALL
NO_CHARGES


@<TRIPOS>ATOM
   1 C1             0.0021     1.3497    -0.0676 C.2     
   2 C2             0.0217     0.0146     0.2011 C.2     
   3 C3            -1.3120    -0.5536     0.2771 C.2     
   4 C4            -2.3020     0.3754     0.0622 C.2     
   5 S5            -1.6489     1.9223    -0.2220 S.3     
   6 N6            -3.6505     0.0925     0.0805 N.pl3   
   7 C7             1.2019     2.1975    -0.2035 C.ar    
   8 C8             2.2679     1.7818    -1.0054 C.ar    
   9 C9             3.3863     2.5794    -1.1278 C.ar    
  10 C10            3.4545     3.7886    -0.4583 C.ar    
  11 C11            2.4026     4.2068     0.3376 C.ar    
  12 C12            1.2752     3.4224     0.4644 C.ar    
  13 C13           -1.5744    -1.9650     0.5530 C.2     
  14 O14           -1.7434    -2.7443    -0.3675 O.2     
  15 C15            1.2626    -0.7686     0.3934 C.ar    
  16 C16            2.0745    -0.5336     1.5037 C.ar    
  17 C17            3.2300    -1.2671     1.6772 C.ar    
  18 C18            3.5848    -2.2335     0.7529 C.ar    
  19 C19            2.7842    -2.4713    -0.3502 C.ar    
  20 C20            1.6228    -1.7490    -0.5319 C.ar    
  21 C21           -1.6348    -2.4466     1.9500 C.ar    
  22 C22           -1.7738    -3.8100     2.2158 C.ar    
  23 C23           -1.8291    -4.2531     3.5205 C.ar    
  24 C24           -1.7469    -3.3484     4.5662 C.ar    
  25 C25           -1.6089    -1.9945     4.3086 C.ar    
  26 C26           -1.5472    -1.5401     3.0081 C.ar    
  27 C27            4.8490    -3.0303     0.9481 C.3     
  28 Cl28          -1.8178    -3.9137     6.2060 Cl      
  29 H29           -3.9566    -0.7947     0.3255 H       
  30 H30           -4.2936     0.7805    -0.1516 H       
  31 H31            2.2163     0.8380    -1.5279 H       
  32 H32            4.2111     2.2594    -1.7473 H       
  33 H33            4.3331     4.4089    -0.5573 H       
  34 H34            2.4628     5.1515     0.8575 H       
  35 H35            0.4549     3.7501     1.0857 H       
  36 H36            1.7990     0.2210     2.2256 H       
  37 H37            3.8592    -1.0862     2.5361 H       
  38 H38            3.0666    -3.2271    -1.0681 H       
  39 H39            0.9987    -1.9355    -1.3933 H       
  40 H40           -1.8384    -4.5163     1.4013 H       
  41 H41           -1.9370    -5.3076     3.7274 H       
  42 H42           -1.5457    -1.2937     5.1279 H       
  43 H43           -1.4393    -0.4842     2.8084 H       
  44 H44            4.6280    -3.9258     1.5289 H       
  45 H45            5.2512    -3.3174    -0.0234 H       
  46 H46            5.5821    -2.4239     1.4801 H       
@<TRIPOS>BOND
   1    1    2 2
   2    1    7 1
   3    1    5 1
   4    2    3 1
   5    2   15 1
   6    3    4 2
   7    3   13 1
   8    4    5 1
   9    4    6 1
  10    6   29 1
  11    6   30 1
  12    7    8 ar
  13    7   12 ar
  14    8    9 ar
  15    8   31 1
  16    9   10 ar
  17    9   32 1
  18   10   11 ar
  19   10   33 1
  20   11   12 ar
  21   11   34 1
  22   12   35 1
  23   13   14 2
  24   13   21 1
  25   15   16 ar
  26   15   20 ar
  27   16   17 ar
  28   16   36 1
  29   17   18 ar
  30   17   37 1
  31   18   19 ar
  32   18   27 1
  33   19   20 ar
  34   19   38 1
  35   20   39 1
  36   21   22 ar
  37   21   26 ar
  38   22   23 ar
  39   22   40 1
  40   23   24 ar
  41   23   41 1
  42   24   25 ar
  43   24   28 1
  44   25   26 ar
  45   25   42 1
  46   26   43 1
  47   27   44 1
  48   27   45 1
  49   27   46 1

#	End of record

