#	Name: ASD02030224
#	Creating user name:	WinNT
#	Creation time:	15. 06. 2019 20:14

#	Modifying user name:	WinNT
#	Modification time:	15. 06. 2019 20:14

#	Program:	/corina/corina34_cracker 3.40 0067  02.08.2006

@<TRIPOS>MOLECULE
ASD02030224
  52   56    0    0    0
SMALL
NO_CHARGES


@<TRIPOS>ATOM
   1 N1            -1.0322     2.0429    -1.3967 N.am    
   2 C2            -0.9976     0.6065    -1.7055 C.3     
   3 C3            -1.1498    -0.1798    -0.3975 C.3     
   4 N4            -2.3000     0.3580     0.3426 N.am    
   5 C5            -2.3346     1.7944     0.6515 C.3     
   6 C6            -2.1797     2.5797    -0.6516 C.3     
   7 C7            -0.0270     2.8524    -1.7848 C.2     
   8 C8             1.1734     2.2820    -2.4322 C.2     
   9 N9             2.2695     2.9388    -2.7453 N.2     
  10 N10            1.3398     0.9982    -2.7998 N.2     
  11 C11            2.5302     0.8978    -3.3340 C.2     
  12 N12            3.1000     2.1197    -3.2928 N.pl3   
  13 C13            4.3788     2.4437    -3.7656 C.ar    
  14 O14           -0.1074     4.0516    -1.6026 O.2     
  15 C15           -3.3052    -0.4515     0.7308 C.2     
  16 C16           -3.2779    -1.8835     0.3764 C.ar    
  17 O17           -4.2345    -0.0017     1.3730 O.2     
  18 C18            4.8489     3.7457    -3.6630 C.ar    
  19 C19            6.1110     4.0620    -4.1305 C.ar    
  20 C20            6.9044     3.0820    -4.7004 C.ar    
  21 C21            6.4377     1.7844    -4.8039 C.ar    
  22 C22            5.1804     1.4614    -4.3326 C.ar    
  23 C23           -3.6703     2.1461     1.3096 C.3     
  24 Cl24           6.7005     5.6899    -4.0029 Cl      
  25 C25           -4.4706    -2.5637     0.1062 C.ar    
  26 C26           -4.4334    -3.9154    -0.2279 C.ar    
  27 C27           -3.2194    -4.5777    -0.2914 C.ar    
  28 C28           -2.0389    -3.9037    -0.0245 C.ar    
  29 C29           -2.0599    -2.5659     0.3034 C.ar    
  30 O30           -5.7676    -2.1477     0.1011 O.3     
  31 C31           -6.4910    -3.1509    -0.6361 C.3     
  32 O32           -5.7112    -4.3458    -0.4427 O.3     
  33 H33           -1.8172     0.3574    -2.3796 H       
  34 H34           -0.0460     0.3560    -2.1744 H       
  35 H35           -1.3190    -1.2331    -0.6215 H       
  36 H36           -0.2459    -0.0713     0.2018 H       
  37 H37           -1.5150     2.0435     1.3255 H       
  38 H38           -2.0107     3.6327    -0.4263 H       
  39 H39           -3.0823     2.4721    -1.2531 H       
  40 H40            2.9768    -0.0012    -3.7325 H       
  41 H41            4.2294     4.5107    -3.2189 H       
  42 H42            7.8899     3.3310    -5.0653 H       
  43 H43            7.0589     1.0217    -5.2497 H       
  44 H44            4.8169     0.4476    -4.4136 H       
  45 H45           -3.7391     1.6519     2.2787 H       
  46 H46           -3.7347     3.2255     1.4467 H       
  47 H47           -4.4887     1.8113     0.6721 H       
  48 H48           -3.1925    -5.6259    -0.5503 H       
  49 H49           -1.0968    -4.4291    -0.0766 H       
  50 H50           -1.1362    -2.0459     0.5100 H       
  51 H51           -7.4937    -3.2776    -0.2279 H       
  52 H52           -6.5369    -2.8905    -1.6935 H       
@<TRIPOS>BOND
   1    1    2 1
   2    1    7 am
   3    1    6 1
   4    2    3 1
   5    2   33 1
   6    2   34 1
   7    3    4 1
   8    3   35 1
   9    3   36 1
  10    4    5 1
  11    4   15 am
  12    5    6 1
  13    5   23 1
  14    5   37 1
  15    6   38 1
  16    6   39 1
  17    7    8 1
  18    7   14 2
  19    8    9 2
  20    8   10 1
  21    9   12 1
  22   10   11 2
  23   11   12 1
  24   11   40 1
  25   12   13 1
  26   13   18 ar
  27   13   22 ar
  28   15   16 1
  29   15   17 2
  30   16   25 ar
  31   16   29 ar
  32   18   19 ar
  33   18   41 1
  34   19   20 ar
  35   19   24 1
  36   20   21 ar
  37   20   42 1
  38   21   22 ar
  39   21   43 1
  40   22   44 1
  41   23   45 1
  42   23   46 1
  43   23   47 1
  44   25   26 ar
  45   25   30 1
  46   26   27 ar
  47   26   32 1
  48   27   28 ar
  49   27   48 1
  50   28   29 ar
  51   28   49 1
  52   29   50 1
  53   30   31 1
  54   31   32 1
  55   31   51 1
  56   31   52 1

#	End of record

