#	Name: ASD00192125
#	Creating user name:	WinNT
#	Creation time:	15. 06. 2019 18:33

#	Modifying user name:	WinNT
#	Modification time:	15. 06. 2019 18:33

#	Program:	/corina/corina34_cracker 3.40 0067  02.08.2006

@<TRIPOS>MOLECULE
ASD00192125
  47   51    0    0    0
SMALL
NO_CHARGES


@<TRIPOS>ATOM
   1 C1            -0.0058     1.3991     0.2225 C.ar    
   2 C2             0.0220     0.0195     0.3930 C.ar    
   3 C3             1.1995    -0.6672     0.3691 C.ar    
   4 C4             2.4056     0.0219     0.1695 C.ar    
   5 C5             2.3710     1.4259    -0.0040 C.ar    
   6 C6             1.1491     2.1005     0.0261 C.ar    
   7 N7             3.5762    -0.6320     0.1426 N.ar    
   8 C8             4.7268    -0.0218    -0.0415 C.ar    
   9 C9             4.8081     1.3679    -0.2236 C.ar    
  10 C10            3.6362     2.1317    -0.2114 C.ar    
  11 N11            5.8369     2.2601    -0.4310 N.pl3   
  12 C12            5.2872     3.4906    -0.5341 C.2     
  13 N13            3.9911     3.4105    -0.4043 N.2     
  14 N14            5.8933    -0.7728    -0.0558 N.pl3   
  15 C15            6.0566     4.7656    -0.7649 C.3     
  16 C16            6.5561     5.3097     0.5750 C.3     
  17 C17            7.3373     6.6041     0.3406 C.3     
  18 C18            8.5322     6.3206    -0.5719 C.3     
  19 C19            8.0327     5.7765    -1.9119 C.3     
  20 C20            7.2515     4.4821    -1.6775 C.3     
  21 C21            6.4213    -1.2369    -1.2518 C.2     
  22 C22            6.5968    -1.0872     1.1941 C.3     
  23 C23            8.0761    -0.8720     0.9919 C.2     
  24 C24            8.6083    -1.0145    -0.2229 C.2     
  25 C25            7.7567    -1.3681    -1.3591 C.2     
  26 Cl26          10.3115    -0.7752    -0.4579 Cl      
  27 Cl27           5.3816    -1.6405    -2.5821 Cl      
  28 H28           -0.9513     1.9208     0.2411 H       
  29 H29           -0.9030    -0.5161     0.5470 H       
  30 H30            1.2041    -1.7387     0.5039 H       
  31 H31            1.1176     3.1720    -0.1055 H       
  32 H32            6.7809     2.0452    -0.4915 H       
  33 H33            5.4061     5.5023    -1.2364 H       
  34 H34            5.7048     5.5117     1.2251 H       
  35 H35            7.2066     4.5730     1.0465 H       
  36 H36            6.6868     7.3408    -0.1309 H       
  37 H37            7.6931     6.9917     1.2952 H       
  38 H38            9.0887     7.2428    -0.7389 H       
  39 H39            9.1827     5.5839    -0.1004 H       
  40 H40            7.3822     6.5132    -2.3834 H       
  41 H41            8.8840     5.5745    -2.5620 H       
  42 H42            7.9020     3.7454    -1.2060 H       
  43 H43            6.8957     4.0945    -2.6321 H       
  44 H44            6.2383    -0.4331     1.9889 H       
  45 H45            6.4130    -2.1269     1.4646 H       
  46 H46            8.7031    -0.6027     1.8291 H       
  47 H47            8.1948    -1.7342    -2.2758 H       
@<TRIPOS>BOND
   1    1    2 ar
   2    1    6 ar
   3    1   28 1
   4    2    3 ar
   5    2   29 1
   6    3    4 ar
   7    3   30 1
   8    4    5 ar
   9    4    7 ar
  10    5    6 ar
  11    5   10 ar
  12    6   31 1
  13    7    8 ar
  14    8    9 ar
  15    8   14 1
  16    9   10 ar
  17    9   11 1
  18   10   13 1
  19   11   12 1
  20   11   32 1
  21   12   13 2
  22   12   15 1
  23   14   21 1
  24   14   22 1
  25   15   16 1
  26   15   20 1
  27   15   33 1
  28   16   17 1
  29   16   34 1
  30   16   35 1
  31   17   18 1
  32   17   36 1
  33   17   37 1
  34   18   19 1
  35   18   38 1
  36   18   39 1
  37   19   20 1
  38   19   40 1
  39   19   41 1
  40   20   42 1
  41   20   43 1
  42   21   27 1
  43   21   25 2
  44   22   23 1
  45   22   44 1
  46   22   45 1
  47   23   24 2
  48   23   46 1
  49   24   25 1
  50   24   26 1
  51   25   47 1

#	End of record

