#	Name: ASD01816922
#	Creating user name:	WinNT
#	Creation time:	15. 06. 2019 19:36

#	Modifying user name:	WinNT
#	Modification time:	15. 06. 2019 19:36

#	Program:	/corina/corina34_cracker 3.40 0067  02.08.2006

@<TRIPOS>MOLECULE
ASD01816922
  52   56    0    0    0
SMALL
NO_CHARGES


@<TRIPOS>ATOM
   1 C1            -0.0159     1.3197     0.0093 C.ar    
   2 N2             0.0021    -0.0041     0.0020 N.ar    
   3 C3             1.1158    -0.6999    -0.0123 C.ar    
   4 C4             2.3544    -0.0408    -0.0206 C.ar    
   5 C5             2.3621     1.3769    -0.0130 C.ar    
   6 C6             1.1366     2.0526     0.0022 C.ar    
   7 C7             3.5723    -0.7485    -0.0364 C.ar    
   8 C8             4.7597    -0.0948    -0.0447 C.ar    
   9 C9             4.8218     1.3071    -0.0373 C.ar    
  10 C10            3.6424     2.0744    -0.0220 C.ar    
  11 C11            6.1046     2.0237    -0.0463 C.2     
  12 N12            6.0637     3.3763    -0.0386 N.am    
  13 C13            4.8746     4.0288    -0.0229 C.2     
  14 N14            3.7274     3.4151    -0.0161 N.2     
  15 O15            7.1639     1.4234    -0.0596 O.2     
  16 C16            3.5548    -2.2554    -0.0438 C.3     
  17 C17            3.4108    -2.7491    -1.4603 C.ar    
  18 C18            4.5365    -2.9888    -2.2262 C.ar    
  19 C19            4.4051    -3.4416    -3.5255 C.ar    
  20 C20            3.1467    -3.6551    -4.0594 C.ar    
  21 C21            2.0206    -3.4151    -3.2924 C.ar    
  22 C22            2.1534    -2.9676    -1.9914 C.ar    
  23 C23            7.3129     4.1416    -0.0469 C.3     
  24 C24            7.3587     5.0297    -1.2920 C.3     
  25 C25            7.3835     5.0163     1.2064 C.3     
  26 C26            8.6881     5.8156     1.1977 C.3     
  27 C27            8.7339     6.7036    -0.0474 C.3     
  28 C28            8.6633     5.8289    -1.3006 C.3     
  29 O29            7.3408     4.1869     2.3692 O.3     
  30 Cl30           2.9809    -4.2233    -5.6914 Cl      
  31 H31           -0.9660     1.8331     0.0165 H       
  32 H32            1.0783    -1.7793    -0.0174 H       
  33 H33            1.1028     3.1320     0.0080 H       
  34 H34            5.6770    -0.6647    -0.0568 H       
  35 H35            4.8803     5.1087    -0.0168 H       
  36 H36            4.4862    -2.6316     0.3792 H       
  37 H37            2.7148    -2.6119     0.5524 H       
  38 H38            5.5187    -2.8218    -1.8094 H       
  39 H39            5.2845    -3.6285    -4.1238 H       
  40 H40            1.0380    -3.5816    -3.7087 H       
  41 H41            1.2744    -2.7802    -1.3926 H       
  42 H42            8.1595     3.4551    -0.0590 H       
  43 H43            7.3084     4.4065    -2.1848 H       
  44 H44            6.5121     5.7162    -1.2799 H       
  45 H45            6.5369     5.7028     1.2184 H       
  46 H46            8.7384     6.4387     2.0905 H       
  47 H47            9.5347     5.1291     1.1856 H       
  48 H48            7.8873     7.3901    -0.0353 H       
  49 H49            9.6633     7.2730    -0.0535 H       
  50 H50            9.5099     5.1424    -1.3127 H       
  51 H51            8.6959     6.4616    -2.1876 H       
  52 H52            7.3816     4.6756     3.2026 H       
@<TRIPOS>BOND
   1    1    2 ar
   2    1    6 ar
   3    1   31 1
   4    2    3 ar
   5    3    4 ar
   6    3   32 1
   7    4    5 ar
   8    4    7 ar
   9    5    6 ar
  10    5   10 ar
  11    6   33 1
  12    7    8 ar
  13    7   16 1
  14    8    9 ar
  15    8   34 1
  16    9   10 ar
  17    9   11 1
  18   10   14 1
  19   11   12 am
  20   11   15 2
  21   12   13 1
  22   12   23 1
  23   13   14 2
  24   13   35 1
  25   16   17 1
  26   16   36 1
  27   16   37 1
  28   17   18 ar
  29   17   22 ar
  30   18   19 ar
  31   18   38 1
  32   19   20 ar
  33   19   39 1
  34   20   21 ar
  35   20   30 1
  36   21   22 ar
  37   21   40 1
  38   22   41 1
  39   23   24 1
  40   23   25 1
  41   23   42 1
  42   24   28 1
  43   24   43 1
  44   24   44 1
  45   25   26 1
  46   25   29 1
  47   25   45 1
  48   26   27 1
  49   26   46 1
  50   26   47 1
  51   27   28 1
  52   27   48 1
  53   27   49 1
  54   28   50 1
  55   28   51 1
  56   29   52 1

#	End of record

