#	Name: ASD01208474
#	Creating user name:	WinNT
#	Creation time:	15. 06. 2019 19:09

#	Modifying user name:	WinNT
#	Modification time:	15. 06. 2019 19:09

#	Program:	/corina/corina34_cracker 3.40 0067  02.08.2006

@<TRIPOS>MOLECULE
ASD01208474
  68   70    0    0    0
SMALL
NO_CHARGES


@<TRIPOS>ATOM
   1 N1            -0.4130     1.2441    -1.1691 N.pl3   
   2 C2            -0.4393    -0.0172    -1.7207 C.2     
   3 C3             0.8653    -0.4308    -1.9013 C.2     
   4 C4             1.6948     0.5952    -1.4524 C.2     
   5 C5             0.8882     1.6191    -1.0048 C.2     
   6 C6            -1.6414    -0.7858    -2.0567 C.2     
   7 O7            -1.5373    -1.8969    -2.5426 O.2     
   8 N8            -2.8620    -0.2623    -1.8275 N.am    
   9 C9             1.3537     2.9046    -0.4426 C.ar    
  10 C10            2.7201     3.1646    -0.3286 C.ar    
  11 C11            3.1521     4.3702     0.1982 C.ar    
  12 C12            2.2284     5.3191     0.6130 C.ar    
  13 C13            0.8690     5.0648     0.5015 C.ar    
  14 C14            0.4284     3.8635    -0.0298 C.ar    
  15 O15           -0.0314     5.9972     0.9095 O.3     
  16 C16           -0.6479     5.8082     2.1057 C.ar    
  17 C17           -1.5986     6.7165     2.5488 C.ar    
  18 C18           -2.2237     6.5221     3.7651 C.ar    
  19 C19           -1.9028     5.4235     4.5410 C.ar    
  20 C20           -0.9554     4.5170     4.1019 C.ar    
  21 C21           -0.3318     4.7035     2.8835 C.ar    
  22 S22           -2.7021     5.1784     6.0920 S.o2    
  23 O23           -1.7725     4.4150     6.8485 O.2     
  24 O24           -3.0815     6.4853     6.5010 O.2     
  25 C25           -4.1671     4.1854     5.6944 C.3     
  26 O26            4.4825     4.6243     0.3096 O.3     
  27 C27            4.8584     5.9209     0.7781 C.3     
  28 C28            6.2699     6.2507     0.2886 C.3     
  29 C29            4.8321     5.9379     2.3078 C.3     
  30 O30            7.2038     5.3480     0.8845 O.3     
  31 C31            8.5594     5.5709     0.4913 C.3     
  32 C32           -4.0634    -1.0305    -2.1632 C.3     
  33 C33           -5.3071    -0.2142    -1.8060 C.3     
  34 C34           -6.5586    -1.0627    -2.0396 C.3     
  35 C35           -5.2396     0.2008    -0.3348 C.3     
  36 O36           -5.3629     0.9533    -2.6281 O.3     
  37 H37           -1.1895     1.7781    -0.9397 H       
  38 H38            1.1846    -1.3763    -2.3144 H       
  39 H39            2.7747     0.5889    -1.4546 H       
  40 H40           -2.9450     0.6232    -1.4402 H       
  41 H41            3.4397     2.4263    -0.6505 H       
  42 H42            2.5687     6.2581     1.0241 H       
  43 H43           -0.6299     3.6680    -0.1204 H       
  44 H44           -1.8494     7.5750     1.9433 H       
  45 H45           -2.9635     7.2290     4.1107 H       
  46 H46           -0.7061     3.6601     4.7101 H       
  47 H47            0.4046     3.9926     2.5389 H       
  48 H48           -3.8559     3.2430     5.2436 H       
  49 H49           -4.7281     3.9838     6.6070 H       
  50 H50           -4.7977     4.7325     4.9936 H       
  51 H51            4.1581     6.6629     0.3945 H       
  52 H52            6.3106     6.1519    -0.7962 H       
  53 H53            6.5225     7.2730     0.5700 H       
  54 H54            3.8265     5.7029     2.6566 H       
  55 H55            5.5324     5.1958     2.6914 H       
  56 H56            5.1189     6.9269     2.6652 H       
  57 H57            8.8595     6.5791     0.7769 H       
  58 H58            9.2052     4.8456     0.9863 H       
  59 H59            8.6476     5.4579    -0.5892 H       
  60 H60           -4.0675    -1.2505    -3.2308 H       
  61 H61           -4.0672    -1.9637    -1.5999 H       
  62 H62           -6.5160    -1.9533    -1.4126 H       
  63 H63           -7.4447    -0.4812    -1.7851 H       
  64 H64           -6.6067    -1.3583    -3.0877 H       
  65 H65           -4.3481     0.8053    -0.1684 H       
  66 H66           -6.1257     0.7823    -0.0803 H       
  67 H67           -5.1971    -0.6898     0.2922 H       
  68 H68           -5.4074     0.7654    -3.5756 H       
@<TRIPOS>BOND
   1    1    2 1
   2    1    5 1
   3    1   37 1
   4    2    3 2
   5    2    6 1
   6    3    4 1
   7    3   38 1
   8    4    5 2
   9    4   39 1
  10    5    9 1
  11    6    7 2
  12    6    8 am
  13    8   32 1
  14    8   40 1
  15    9   10 ar
  16    9   14 ar
  17   10   11 ar
  18   10   41 1
  19   11   12 ar
  20   11   26 1
  21   12   13 ar
  22   12   42 1
  23   13   14 ar
  24   13   15 1
  25   14   43 1
  26   15   16 1
  27   16   17 ar
  28   16   21 ar
  29   17   18 ar
  30   17   44 1
  31   18   19 ar
  32   18   45 1
  33   19   20 ar
  34   19   22 1
  35   20   21 ar
  36   20   46 1
  37   21   47 1
  38   22   23 2
  39   22   24 2
  40   22   25 1
  41   25   48 1
  42   25   49 1
  43   25   50 1
  44   26   27 1
  45   27   28 1
  46   27   29 1
  47   27   51 1
  48   28   30 1
  49   28   52 1
  50   28   53 1
  51   29   54 1
  52   29   55 1
  53   29   56 1
  54   30   31 1
  55   31   57 1
  56   31   58 1
  57   31   59 1
  58   32   33 1
  59   32   60 1
  60   32   61 1
  61   33   34 1
  62   33   35 1
  63   33   36 1
  64   34   62 1
  65   34   63 1
  66   34   64 1
  67   35   65 1
  68   35   66 1
  69   35   67 1
  70   36   68 1

#	End of record

