#	Name: ASD01881322
#	Creating user name:	WinNT
#	Creation time:	15. 06. 2019 19:42

#	Modifying user name:	WinNT
#	Modification time:	15. 06. 2019 19:42

#	Program:	/corina/corina34_cracker 3.40 0067  02.08.2006

@<TRIPOS>MOLECULE
ASD01881322
  61   63    0    0    0
SMALL
NO_CHARGES


@<TRIPOS>ATOM
   1 C1            -0.0179     1.4697     0.0101 C.2     
   2 C2             0.0021    -0.0041     0.0020 C.ar    
   3 C3             1.2222    -0.6895    -0.0133 C.ar    
   4 C4             1.2352    -2.0677    -0.0209 C.ar    
   5 C5             0.0394    -2.7756    -0.0133 C.ar    
   6 C6            -1.1746    -2.0981     0.0019 C.ar    
   7 C7            -1.1976    -0.7217     0.0154 C.ar    
   8 O8             1.0260     2.0915     0.0035 O.2     
   9 O9            -1.1940     2.1275     0.0193 O.3     
  10 O10            0.0566    -4.1325    -0.0213 O.3     
  11 C11           -1.2082    -4.7974    -0.0128 C.3     
  12 C12           -0.9885    -6.3115    -0.0236 C.3     
  13 C13           -2.3428    -7.0234    -0.0145 C.3     
  14 C14           -2.1231    -8.5375    -0.0253 C.3     
  15 O15           -3.3879    -9.2024    -0.0168 O.3     
  16 C16           -3.3707   -10.5590    -0.0248 C.ar    
  17 C17           -4.5657   -11.2646    -0.0172 C.ar    
  18 C18           -4.5506   -12.6484    -0.0258 C.ar    
  19 C19           -3.3199   -13.3297    -0.0421 C.ar    
  20 C20           -2.1233   -12.6004    -0.0495 C.ar    
  21 C21           -2.1543   -11.2361    -0.0463 C.ar    
  22 C22           -5.8785   -10.5248     0.0008 C.3     
  23 O23           -5.7150   -13.3433    -0.0180 O.3     
  24 C24           -3.2894   -14.7943    -0.0508 C.2     
  25 O25           -4.3273   -15.4228    -0.0439 O.2     
  26 C26           -1.9689   -15.5203    -0.0683 C.3     
  27 C27           -2.2171   -17.0301    -0.0744 C.3     
  28 C28           -0.8829   -17.7830    -0.2182 C.3     
  29 C29           -0.7304   -18.6547     1.0453 C.3     
  30 C30           -2.1818   -18.8501     1.5495 C.3     
  31 C31           -2.8288   -17.4705     1.2715 C.3     
  32 Cl32           2.7162     0.1945    -0.0233 Cl      
  33 H33            2.1759    -2.5981    -0.0331 H       
  34 H34           -2.1013    -2.6527     0.0074 H       
  35 H35           -2.1414    -0.1969     0.0321 H       
  36 H36           -1.1565     3.0938     0.0244 H       
  37 H37           -1.7602    -4.5167     0.8842 H       
  38 H38           -1.7775    -4.5065    -0.8956 H       
  39 H39           -0.4365    -6.5921    -0.9206 H       
  40 H40           -0.4192    -6.6023     0.8592 H       
  41 H41           -2.8948    -6.7428     0.8825 H       
  42 H42           -2.9121    -6.7325    -0.8973 H       
  43 H43           -1.5711    -8.8182    -0.9223 H       
  44 H44           -1.5538    -8.8284     0.8575 H       
  45 H45           -1.1758   -13.1185    -0.0621 H       
  46 H46           -1.2296   -10.6783    -0.0566 H       
  47 H47           -6.2054   -10.3398    -1.0225 H       
  48 H48           -6.6268   -11.1250     0.5184 H       
  49 H49           -5.7528    -9.5744     0.5195 H       
  50 H50           -6.0618   -13.5395    -0.8990 H       
  51 H51           -1.4120   -15.2400    -0.9624 H       
  52 H52           -1.3940   -15.2502     0.8175 H       
  53 H53           -2.8855   -17.2950    -0.8937 H       
  54 H54           -0.9041   -18.4139    -1.1068 H       
  55 H55           -0.0586   -17.0728    -0.2837 H       
  56 H56           -0.2812   -19.6155     0.7940 H       
  57 H57           -0.1323   -18.1376     1.7957 H       
  58 H58           -2.6851   -19.6339     0.9834 H       
  59 H59           -2.1934   -19.0743     2.6161 H       
  60 H60           -2.5696   -16.7621     2.0584 H       
  61 H61           -3.9111   -17.5672     1.1852 H       
@<TRIPOS>BOND
   1    1    2 1
   2    1    8 2
   3    1    9 1
   4    2    3 ar
   5    2    7 ar
   6    3    4 ar
   7    3   32 1
   8    4    5 ar
   9    4   33 1
  10    5    6 ar
  11    5   10 1
  12    6    7 ar
  13    6   34 1
  14    7   35 1
  15    9   36 1
  16   10   11 1
  17   11   12 1
  18   11   37 1
  19   11   38 1
  20   12   13 1
  21   12   39 1
  22   12   40 1
  23   13   14 1
  24   13   41 1
  25   13   42 1
  26   14   15 1
  27   14   43 1
  28   14   44 1
  29   15   16 1
  30   16   17 ar
  31   16   21 ar
  32   17   18 ar
  33   17   22 1
  34   18   19 ar
  35   18   23 1
  36   19   20 ar
  37   19   24 1
  38   20   21 ar
  39   20   45 1
  40   21   46 1
  41   22   47 1
  42   22   48 1
  43   22   49 1
  44   23   50 1
  45   24   25 2
  46   24   26 1
  47   26   27 1
  48   26   51 1
  49   26   52 1
  50   27   28 1
  51   27   31 1
  52   27   53 1
  53   28   29 1
  54   28   54 1
  55   28   55 1
  56   29   30 1
  57   29   56 1
  58   29   57 1
  59   30   31 1
  60   30   58 1
  61   30   59 1
  62   31   60 1
  63   31   61 1

#	End of record

