#	Name: ASD01030023
#	Creating user name:	WinNT
#	Creation time:	15. 06. 2019 18:58

#	Modifying user name:	WinNT
#	Modification time:	15. 06. 2019 18:58

#	Program:	/corina/corina34_cracker 3.40 0067  02.08.2006

@<TRIPOS>MOLECULE
ASD01030023
  65   65    0    0    0
SMALL
NO_CHARGES


@<TRIPOS>ATOM
   1 C1            -0.0167     1.3781     0.0096 C.ar    
   2 C2             0.0021    -0.0041     0.0020 C.ar    
   3 C3             1.2084    -0.6789    -0.0132 C.ar    
   4 C4             2.3960     0.0285    -0.0212 C.ar    
   5 C5             2.3773     1.4107    -0.0145 C.ar    
   6 C6             1.1709     2.0855     0.0021 C.ar    
   7 P7            -1.5998     2.2637     0.0219 P.3     
   8 O8            -1.3305     3.8461    -0.1030 O.3     
   9 O9            -2.4991     1.7726    -1.2199 O.3     
  10 O10           -2.3122     1.9830     1.2885 O.2     
  11 C11           -2.3712     4.8217    -0.0180 C.3     
  12 C12           -1.7728     6.2209    -0.1769 C.3     
  13 C13           -2.8869     7.2655    -0.0859 C.3     
  14 C14           -2.2885     8.6646    -0.2448 C.3     
  15 C15           -3.4027     9.7092    -0.1537 C.3     
  16 C16           -2.8043    11.1083    -0.3126 C.3     
  17 C17           -3.9185    12.1529    -0.2216 C.3     
  18 C18           -3.3201    13.5520    -0.3805 C.3     
  19 C19           -3.8447     2.2071    -1.4263 C.3     
  20 C20           -4.4036     1.5527    -2.6914 C.3     
  21 C21           -5.8442     2.0180    -2.9124 C.3     
  22 C22           -6.4031     1.3636    -4.1774 C.3     
  23 C23           -7.8438     1.8288    -4.3984 C.3     
  24 C24           -8.4027     1.1744    -5.6635 C.3     
  25 C25           -9.8434     1.6397    -5.8845 C.3     
  26 C26          -10.4023     0.9853    -7.1495 C.3     
  27 H27           -0.9258    -0.5567     0.0083 H       
  28 H28            1.2231    -1.7588    -0.0184 H       
  29 H29            3.3385    -0.4987    -0.0324 H       
  30 H30            3.3051     1.9634    -0.0205 H       
  31 H31            1.1563     3.1654     0.0077 H       
  32 H32           -3.0995     4.6460    -0.8097 H       
  33 H33           -2.8629     4.7449     0.9517 H       
  34 H34           -1.0444     6.3966     0.6148 H       
  35 H35           -1.2810     6.2977    -1.1466 H       
  36 H36           -3.6153     7.0897    -0.8775 H       
  37 H37           -3.3787     7.1886     0.8839 H       
  38 H38           -1.5602     8.8403     0.5469 H       
  39 H39           -1.7968     8.7414    -1.2145 H       
  40 H40           -4.1311     9.5335    -0.9454 H       
  41 H41           -3.8945     9.6323     0.8160 H       
  42 H42           -2.0759    11.2840     0.4790 H       
  43 H43           -2.3125    11.1852    -1.2824 H       
  44 H44           -4.6468    11.9772    -1.0133 H       
  45 H45           -4.4102    12.0760     0.7481 H       
  46 H46           -4.1138    14.2962    -0.3157 H       
  47 H47           -2.5917    13.7277     0.4111 H       
  48 H48           -2.8283    13.6289    -1.3502 H       
  49 H49           -4.4544     1.9209    -0.5694 H       
  50 H50           -3.8631     3.2911    -1.5395 H       
  51 H51           -3.7938     1.8390    -3.5483 H       
  52 H52           -4.3851     0.4688    -2.5782 H       
  53 H53           -6.4540     1.7317    -2.0555 H       
  54 H54           -5.8627     3.1019    -3.0255 H       
  55 H55           -5.7933     1.6499    -5.0343 H       
  56 H56           -6.3847     0.2796    -4.0643 H       
  57 H57           -8.4536     1.5426    -3.5415 H       
  58 H58           -7.8623     2.9128    -4.5116 H       
  59 H59           -7.7929     1.4607    -6.5204 H       
  60 H60           -8.3842     0.0905    -5.5503 H       
  61 H61          -10.4532     1.3534    -5.0276 H       
  62 H62           -9.8618     2.7236    -5.9976 H       
  63 H63          -11.4286     1.3167    -7.3070 H       
  64 H64           -9.7925     1.2715    -8.0064 H       
  65 H65          -10.3838    -0.0987    -7.0364 H       
@<TRIPOS>BOND
   1    1    2 ar
   2    1    6 ar
   3    1    7 1
   4    2    3 ar
   5    2   27 1
   6    3    4 ar
   7    3   28 1
   8    4    5 ar
   9    4   29 1
  10    5    6 ar
  11    5   30 1
  12    6   31 1
  13    7    8 1
  14    7    9 1
  15    7   10 2
  16    8   11 1
  17    9   19 1
  18   11   12 1
  19   11   32 1
  20   11   33 1
  21   12   13 1
  22   12   34 1
  23   12   35 1
  24   13   14 1
  25   13   36 1
  26   13   37 1
  27   14   15 1
  28   14   38 1
  29   14   39 1
  30   15   16 1
  31   15   40 1
  32   15   41 1
  33   16   17 1
  34   16   42 1
  35   16   43 1
  36   17   18 1
  37   17   44 1
  38   17   45 1
  39   18   46 1
  40   18   47 1
  41   18   48 1
  42   19   20 1
  43   19   49 1
  44   19   50 1
  45   20   21 1
  46   20   51 1
  47   20   52 1
  48   21   22 1
  49   21   53 1
  50   21   54 1
  51   22   23 1
  52   22   55 1
  53   22   56 1
  54   23   24 1
  55   23   57 1
  56   23   58 1
  57   24   25 1
  58   24   59 1
  59   24   60 1
  60   25   26 1
  61   25   61 1
  62   25   62 1
  63   26   63 1
  64   26   64 1
  65   26   65 1

#	End of record

