#	Name: ASD01418022
#	Creating user name:	WinNT
#	Creation time:	15. 06. 2019 19:20

#	Modifying user name:	WinNT
#	Modification time:	15. 06. 2019 19:20

#	Program:	/corina/corina34_cracker 3.40 0067  02.08.2006

@<TRIPOS>MOLECULE
ASD01418022
  43   46    0    0    0
SMALL
NO_CHARGES


@<TRIPOS>ATOM
   1 S1            -0.0220     1.7685     0.0118 S.3     
   2 C2             0.0021    -0.0041     0.0020 C.2     
   3 N3             1.2622    -0.3698    -0.0120 N.2     
   4 C4             2.2175     0.5350    -0.0162 C.2     
   5 C5             1.7467     1.9263    -0.0043 C.2     
   6 O6             3.4029     0.2409    -0.0288 O.2     
   7 N7            -1.0885    -0.8348     0.0084 N.pl3   
   8 C8            -0.9024    -2.2879    -0.0013 C.3     
   9 N9            -0.6461    -1.9925    -2.5216 N.pl3   
  10 N10           -0.5040    -2.7847    -3.5299 N.2     
  11 N11           -0.4963    -4.0000    -3.1051 N.2     
  12 N12           -0.6326    -4.0063    -1.8239 N.2     
  13 C13           -0.7298    -2.7628    -1.4210 C.2     
  14 C14           -2.1099    -2.9530     0.6076 C.ar    
  15 C15           -1.9503    -4.0422     1.4439 C.ar    
  16 C16           -3.0568    -4.6526     2.0032 C.ar    
  17 C17           -4.3257    -4.1728     1.7257 C.ar    
  18 C18           -4.4843    -3.0819     0.8881 C.ar    
  19 C19           -3.3760    -2.4698     0.3341 C.ar    
  20 F20           -5.4081    -4.7691     2.2716 F       
  21 C21            2.4914     3.0684    -0.0059 C.2     
  22 O22            0.5200     4.5451     0.0214 O.3     
  23 C23            1.8521     4.3289     0.0067 C.2     
  24 C24            2.4788     5.5595     0.0067 C.2     
  25 C25            1.4615     6.5253     0.0220 C.2     
  26 C26            0.2824     5.8644     0.0306 C.2     
  27 C27           -1.0805     6.5074     0.0473 C.3     
  28 C28           -1.5561     6.7320    -1.3894 C.3     
  29 H29           -1.9832    -0.4604     0.0192 H       
  30 H30           -0.0155    -2.5445     0.5780 H       
  31 H31           -0.6816    -1.0236    -2.5507 H       
  32 H32           -0.9605    -4.4164     1.6599 H       
  33 H33           -2.9319    -5.5037     2.6562 H       
  34 H34           -5.4735    -2.7068     0.6709 H       
  35 H35           -3.4992    -1.6163    -0.3161 H       
  36 H36            3.5698     3.0099    -0.0168 H       
  37 H37            3.5432     5.7425    -0.0029 H       
  38 H38            1.5954     7.5970     0.0265 H       
  39 H39           -1.7837     5.8551     0.5651 H       
  40 H40           -1.0242     7.4648     0.5653 H       
  41 H41           -2.5419     7.1971    -1.3773 H       
  42 H42           -0.8529     7.3843    -1.9072 H       
  43 H43           -1.6124     5.7746    -1.9073 H       
@<TRIPOS>BOND
   1    1    2 1
   2    1    5 1
   3    2    3 2
   4    2    7 1
   5    3    4 1
   6    4    5 1
   7    4    6 2
   8    5   21 2
   9    7    8 1
  10    7   29 1
  11    8   13 1
  12    8   14 1
  13    8   30 1
  14    9   10 1
  15    9   13 1
  16    9   31 1
  17   10   11 2
  18   11   12 1
  19   12   13 2
  20   14   15 ar
  21   14   19 ar
  22   15   16 ar
  23   15   32 1
  24   16   17 ar
  25   16   33 1
  26   17   18 ar
  27   17   20 1
  28   18   19 ar
  29   18   34 1
  30   19   35 1
  31   21   23 1
  32   21   36 1
  33   22   23 1
  34   22   26 1
  35   23   24 2
  36   24   25 1
  37   24   37 1
  38   25   26 2
  39   25   38 1
  40   26   27 1
  41   27   28 1
  42   27   39 1
  43   27   40 1
  44   28   41 1
  45   28   42 1
  46   28   43 1

#	End of record

