#	Name: ASD03430254
#	Creating user name:	WinNT
#	Creation time:	15. 06. 2019 20:40

#	Modifying user name:	WinNT
#	Modification time:	15. 06. 2019 20:40

#	Program:	/corina/corina34_cracker 3.40 0067  02.08.2006

@<TRIPOS>MOLECULE
ASD03430254
  56   62    0    0    0
SMALL
NO_CHARGES


@<TRIPOS>ATOM
   1 C1            -0.0167     1.3821     0.0096 C.ar    
   2 C2             0.0021    -0.0041     0.0020 C.ar    
   3 C3             1.2028    -0.6818    -0.0162 C.ar    
   4 C4             2.4087     0.0129    -0.0162 C.ar    
   5 C5             2.3861     1.4039    -0.0119 C.ar    
   6 C6             1.1815     2.0867     0.0020 C.ar    
   7 O7             3.4713    -0.8419    -0.0074 O.3     
   8 C8             1.5511    -2.1458    -0.0509 C.3     
   9 C9             3.0363    -2.1458    -0.4380 C.3     
  10 C10            0.4268    -3.8598     1.0070 C.ar    
  11 C11            1.3158    -2.8198     1.2682 C.ar    
  12 C12            0.7167    -2.9064    -1.0410 C.2     
  13 N13            0.0966    -3.8836    -0.3502 N.am    
  14 O14            0.6192    -2.6843    -2.2294 O.2     
  15 C15            1.7821    -2.6009     2.5448 C.ar    
  16 C16            1.3690    -3.4172     3.5832 C.ar    
  17 C17            0.4871    -4.4527     3.3353 C.ar    
  18 C18            0.0170    -4.6765     2.0576 C.ar    
  19 C19           -0.8166    -4.8579    -0.9526 C.3     
  20 C20           -2.2242    -4.3214    -0.9082 C.ar    
  21 C21           -2.7065    -3.5641    -1.9604 C.ar    
  22 C22           -3.0310    -4.5928     0.1820 C.ar    
  23 C23           -4.3212    -4.1046     0.2275 C.ar    
  24 C24           -4.8104    -3.3369    -0.8273 C.ar    
  25 C25           -3.9949    -3.0706    -1.9252 C.ar    
  26 O26           -1.2113     2.0356     0.0189 O.3     
  27 C27           -1.1865     3.4165     0.3963 C.3     
  28 C28           -0.0349     4.0988    -0.3543 C.3     
  29 O29            1.1866     3.4483     0.0115 O.3     
  30 C30           -6.1969    -2.8092    -0.7840 C.2     
  31 N31           -6.7987    -2.0551    -1.7313 N.2     
  32 N32           -7.0672    -2.9914     0.1748 N.2     
  33 O33           -8.1079    -2.4297    -0.0945 O.3     
  34 C34           -8.0059    -1.8210    -1.2802 C.2     
  35 C35           -9.0782    -1.0163    -1.9685 C.3     
  36 H36           -0.9268    -0.5550     0.0107 H       
  37 H37            3.3148     1.9551    -0.0190 H       
  38 H38            3.1554    -2.2571    -1.5158 H       
  39 H39            3.5752    -2.9292     0.0949 H       
  40 H40            2.4713    -1.7916     2.7361 H       
  41 H41            1.7349    -3.2459     4.5848 H       
  42 H42            0.1649    -5.0898     4.1457 H       
  43 H43           -0.6714    -5.4876     1.8718 H       
  44 H44           -0.5276    -5.0346    -1.9886 H       
  45 H45           -0.7671    -5.7943    -0.3969 H       
  46 H46           -2.0735    -3.3583    -2.8110 H       
  47 H47           -2.6508    -5.1881     0.9991 H       
  48 H48           -4.9506    -4.3177     1.0789 H       
  49 H49           -4.3690    -2.4757    -2.7452 H       
  50 H50           -2.1315     3.8882     0.1269 H       
  51 H51           -1.0261     3.5010     1.4711 H       
  52 H52           -0.1916     4.0078    -1.4291 H       
  53 H53            0.0118     5.1519    -0.0769 H       
  54 H54           -9.9742    -0.9992    -1.3480 H       
  55 H55           -8.7243     0.0029    -2.1238 H       
  56 H56           -9.3117    -1.4706    -2.9314 H       
@<TRIPOS>BOND
   1    1    2 ar
   2    1    6 ar
   3    1   26 1
   4    2    3 ar
   5    2   36 1
   6    3    4 ar
   7    3    8 1
   8    4    5 ar
   9    4    7 1
  10    5    6 ar
  11    5   37 1
  12    6   29 1
  13    7    9 1
  14    8    9 1
  15    8   11 1
  16    8   12 1
  17    9   38 1
  18    9   39 1
  19   10   11 ar
  20   10   13 1
  21   10   18 ar
  22   11   15 ar
  23   12   13 am
  24   12   14 2
  25   13   19 1
  26   15   16 ar
  27   15   40 1
  28   16   17 ar
  29   16   41 1
  30   17   18 ar
  31   17   42 1
  32   18   43 1
  33   19   20 1
  34   19   44 1
  35   19   45 1
  36   20   21 ar
  37   20   22 ar
  38   21   25 ar
  39   21   46 1
  40   22   23 ar
  41   22   47 1
  42   23   24 ar
  43   23   48 1
  44   24   25 ar
  45   24   30 1
  46   25   49 1
  47   26   27 1
  48   27   28 1
  49   27   50 1
  50   27   51 1
  51   28   29 1
  52   28   52 1
  53   28   53 1
  54   30   31 1
  55   30   32 2
  56   31   34 2
  57   32   33 1
  58   33   34 1
  59   34   35 1
  60   35   54 1
  61   35   55 1
  62   35   56 1

#	End of record

