#	Name: ASD06170184
#	Creating user name:	WinNT
#	Creation time:	15. 06. 2019 21:05

#	Modifying user name:	WinNT
#	Modification time:	15. 06. 2019 21:05

#	Program:	/corina/corina34_cracker 3.40 0067  02.08.2006

@<TRIPOS>MOLECULE
ASD06170184
  75   80    0    0    0
SMALL
NO_CHARGES


@<TRIPOS>ATOM
   1 C1            -0.0632     1.2310    -0.1173 C.2     
   2 C2            -0.0030    -0.1117    -0.4345 C.2     
   3 C3             1.2446    -0.7598    -0.4897 C.2     
   4 C4             2.3937    -0.0239    -0.2209 C.2     
   5 C5             2.2705     1.3533     0.0995 C.2     
   6 N6             1.0570     1.9331     0.1411 N.am    
   7 C7            -3.0578    -2.4122    -0.0277 C.3     
   8 C8            -1.5830    -2.0444     0.1540 C.3     
   9 C9            -1.2441    -0.8651    -0.7144 C.2     
  10 C10           -2.0064    -0.4759    -1.7122 C.2     
  11 C11           -3.2905    -1.1630    -2.0785 C.3     
  12 N12           -3.3445    -2.4978    -1.4691 N.3     
  13 C13            3.7174    -0.6636    -0.2674 C.2     
  14 O14            3.8065    -1.8659    -0.4302 O.2     
  15 N15            4.8315     0.0822    -0.1298 N.am    
  16 C16            0.9521     3.3561     0.4735 C.3     
  17 C17            0.8051     3.5140     1.9649 C.ar    
  18 C18            1.9281     3.6484     2.7598 C.ar    
  19 C19            1.7932     3.7933     4.1279 C.ar    
  20 C20            0.5354     3.8042     4.7011 C.ar    
  21 C21           -0.5876     3.6707     3.9062 C.ar    
  22 C22           -0.4530     3.5302     2.5376 C.ar    
  23 O23            3.2672     2.0130     0.3378 O.2     
  24 C24            6.0786    -0.5364    -0.0434 C.ar    
  25 C25            6.1555    -1.8866     0.2799 C.ar    
  26 C26            7.3971    -2.4902     0.3624 C.ar    
  27 C27            8.5288    -1.7163     0.1166 C.ar    
  28 C28            8.3754    -0.3761    -0.2004 C.ar    
  29 N29            7.1753     0.1667    -0.2755 N.ar    
  30 O30            9.7689    -2.2690     0.1873 O.3     
  31 N31           10.9748    -4.6744    -2.9386 N.ar    
  32 C32            9.8328    -4.0311    -3.0033 C.ar    
  33 C33            9.3936    -3.2124    -1.9705 C.ar    
  34 C34           10.1718    -3.0618    -0.8362 C.ar    
  35 C35           11.3994    -3.7592    -0.7776 C.ar    
  36 C36           12.2419    -3.6566     0.3395 C.ar    
  37 C37           13.4204    -4.3449     0.3622 C.ar    
  38 C38           13.7972    -5.1533    -0.7198 C.ar    
  39 C39           12.9963    -5.2704    -1.8191 C.ar    
  40 C40           11.7771    -4.5748    -1.8720 C.ar    
  41 O41           14.9754    -5.8288    -0.6737 O.3     
  42 C42           15.3050    -6.6362    -1.8057 C.3     
  43 O43           14.2374    -4.2453     1.4446 O.3     
  44 C44           13.7978    -3.4057     2.5141 C.3     
  45 H45           -1.0221     1.7265    -0.0803 H       
  46 H46            1.3087    -1.8094    -0.7359 H       
  47 H47           -3.2556    -3.3754     0.4428 H       
  48 H48           -3.6851    -1.6446     0.4254 H       
  49 H49           -1.3984    -1.7911     1.1980 H       
  50 H50           -0.9602    -2.8933    -0.1280 H       
  51 H51           -1.6948     0.3779    -2.2956 H       
  52 H52           -4.1321    -0.5691    -1.7220 H       
  53 H53           -3.3525    -1.2583    -3.1626 H       
  54 H54           -2.7064    -3.1308    -1.9277 H       
  55 H55            4.7661     1.0492    -0.0907 H       
  56 H56            1.8511     3.8743     0.1401 H       
  57 H57            0.0812     3.7822    -0.0246 H       
  58 H58            2.9108     3.6399     2.3119 H       
  59 H59            2.6706     3.8976     4.7489 H       
  60 H60            0.4301     3.9166     5.7701 H       
  61 H61           -1.5704     3.6789     4.3541 H       
  62 H62           -1.3305     3.4296     1.9162 H       
  63 H63            5.2569    -2.4567     0.4646 H       
  64 H64            7.4871    -3.5371     0.6119 H       
  65 H65            9.2484     0.2302    -0.3922 H       
  66 H66            9.2173    -4.1412    -3.8839 H       
  67 H67            8.4492    -2.6951    -2.0528 H       
  68 H68           11.9596    -3.0360     1.1770 H       
  69 H69           13.2992    -5.8960    -2.6457 H       
  70 H70           14.5367    -7.3966    -1.9457 H       
  71 H71           15.3617    -6.0089    -2.6952 H       
  72 H72           16.2680    -7.1190    -1.6395 H       
  73 H73           13.6714    -2.3869     2.1478 H       
  74 H74           12.8466    -3.7744     2.8980 H       
  75 H75           14.5400    -3.4154     3.3123 H       
@<TRIPOS>BOND
   1    1    2 2
   2    1    6 1
   3    1   45 1
   4    2    3 1
   5    2    9 1
   6    3    4 2
   7    3   46 1
   8    4    5 1
   9    4   13 1
  10    5    6 am
  11    5   23 2
  12    6   16 1
  13    7    8 1
  14    7   12 1
  15    7   47 1
  16    7   48 1
  17    8    9 1
  18    8   49 1
  19    8   50 1
  20    9   10 2
  21   10   11 1
  22   10   51 1
  23   11   12 1
  24   11   52 1
  25   11   53 1
  26   12   54 1
  27   13   14 2
  28   13   15 am
  29   15   24 1
  30   15   55 1
  31   16   17 1
  32   16   56 1
  33   16   57 1
  34   17   18 ar
  35   17   22 ar
  36   18   19 ar
  37   18   58 1
  38   19   20 ar
  39   19   59 1
  40   20   21 ar
  41   20   60 1
  42   21   22 ar
  43   21   61 1
  44   22   62 1
  45   24   25 ar
  46   24   29 ar
  47   25   26 ar
  48   25   63 1
  49   26   27 ar
  50   26   64 1
  51   27   28 ar
  52   27   30 1
  53   28   29 ar
  54   28   65 1
  55   30   34 1
  56   31   32 ar
  57   31   40 ar
  58   32   33 ar
  59   32   66 1
  60   33   34 ar
  61   33   67 1
  62   34   35 ar
  63   35   36 ar
  64   35   40 ar
  65   36   37 ar
  66   36   68 1
  67   37   38 ar
  68   37   43 1
  69   38   39 ar
  70   38   41 1
  71   39   40 ar
  72   39   69 1
  73   41   42 1
  74   42   70 1
  75   42   71 1
  76   42   72 1
  77   43   44 1
  78   44   73 1
  79   44   74 1
  80   44   75 1

#	End of record

