#	Name: ASD01914898
#	Creating user name:	WinNT
#	Creation time:	15. 06. 2019 20:04

#	Modifying user name:	WinNT
#	Modification time:	15. 06. 2019 20:04

#	Program:	/corina/corina34_cracker 3.40 0067  02.08.2006

@<TRIPOS>MOLECULE
ASD01914898
  43   44    0    0    0
SMALL
NO_CHARGES


@<TRIPOS>ATOM
   1 C1            -0.0183     1.4975     0.0103 C.3     
   2 C2             0.0021    -0.0041     0.0020 C.2     
   3 C3             1.0622    -0.7052    -0.3356 C.2     
   4 C4             2.3623    -0.0674    -0.7394 C.3     
   5 C5             2.1287     1.4052    -1.0865 C.3     
   6 N6             1.3522     2.0244     0.0000 N.3     
   7 C7             1.3524     3.4884    -0.1209 C.3     
   8 O8            -3.1895    -1.0607     1.0157 O.3     
   9 N9            -2.3752    -0.2076     0.7575 N.2     
  10 C10           -1.2261    -0.7275     0.3918 C.2     
  11 C11           -1.4232    -2.1853     0.4533 C.2     
  12 C12           -2.7124    -2.3063     0.8630 C.2     
  13 S13           -0.2673    -3.4628     0.0840 S.3     
  14 C14           -1.2209    -4.9759     0.3864 C.3     
  15 C15           -0.3428    -6.1969     0.1056 C.3     
  16 C16           -1.1471    -7.4732     0.3607 C.3     
  17 C17           -0.2690    -8.6942     0.0799 C.3     
  18 C18           -1.0733    -9.9705     0.3350 C.3     
  19 C19           -0.1951   -11.1915     0.0542 C.3     
  20 H20           -0.5496     1.8562    -0.8713 H       
  21 H21           -0.5326     1.8466     0.9057 H       
  22 H22            0.9963    -1.7831    -0.3218 H       
  23 H23            3.0721    -0.1375     0.0848 H       
  24 H24            2.7655    -0.5855    -1.6095 H       
  25 H25            3.0874     1.9140    -1.1873 H       
  26 H26            1.5726     1.4773    -2.0212 H       
  27 H27            0.8173     3.9228     0.7235 H       
  28 H28            2.3799     3.8524    -0.1260 H       
  29 H29            0.8603     3.7764    -1.0499 H       
  30 H30           -3.2503    -3.2273     1.0329 H       
  31 H31           -1.5502    -4.9964     1.4253 H       
  32 H32           -2.0904    -4.9949    -0.2707 H       
  33 H33           -0.0135    -6.1765    -0.9333 H       
  34 H34            0.5267    -6.1780     0.7627 H       
  35 H35           -1.4764    -7.4936     1.3996 H       
  36 H36           -2.0166    -7.4921    -0.2964 H       
  37 H37            0.0603    -8.6738    -0.9590 H       
  38 H38            0.6005    -8.6753     0.7370 H       
  39 H39           -1.4026    -9.9909     1.3739 H       
  40 H40           -1.9428    -9.9894    -0.3221 H       
  41 H41            0.6743   -11.1725     0.7113 H       
  42 H42           -0.7682   -12.1007     0.2359 H       
  43 H43            0.1341   -11.1710    -0.9847 H       
@<TRIPOS>BOND
   1    1    2 1
   2    1    6 1
   3    1   20 1
   4    1   21 1
   5    2    3 2
   6    2   10 1
   7    3    4 1
   8    3   22 1
   9    4    5 1
  10    4   23 1
  11    4   24 1
  12    5    6 1
  13    5   25 1
  14    5   26 1
  15    6    7 1
  16    7   27 1
  17    7   28 1
  18    7   29 1
  19    8    9 1
  20    8   12 1
  21    9   10 2
  22   10   11 1
  23   11   12 2
  24   11   13 1
  25   12   30 1
  26   13   14 1
  27   14   15 1
  28   14   31 1
  29   14   32 1
  30   15   16 1
  31   15   33 1
  32   15   34 1
  33   16   17 1
  34   16   35 1
  35   16   36 1
  36   17   18 1
  37   17   37 1
  38   17   38 1
  39   18   19 1
  40   18   39 1
  41   18   40 1
  42   19   41 1
  43   19   42 1
  44   19   43 1

#	End of record

