#	Name: ASD01150405
#	Creating user name:	WinNT
#	Creation time:	15. 06. 2019 19:04

#	Modifying user name:	WinNT
#	Modification time:	15. 06. 2019 19:04

#	Program:	/corina/corina34_cracker 3.40 0067  02.08.2006

@<TRIPOS>MOLECULE
ASD01150405
  44   46    0    0    0
SMALL
NO_CHARGES


@<TRIPOS>ATOM
   1 C1            -0.0171     1.3893     0.7950 C.ar    
   2 C2             0.1196     0.0206     0.9231 C.ar    
   3 C3             1.0296    -0.6628     0.1364 C.ar    
   4 C4             1.8093     0.0275    -0.7857 C.ar    
   5 C5             1.6732     1.4016    -0.9154 C.ar    
   6 C6             0.7592     2.0837    -0.1245 C.ar    
   7 N7             0.6191     3.4709    -0.2535 N.am    
   8 C8            -0.6083     4.0046    -0.3855 C.2     
   9 N9            -0.7762     5.3343    -0.5115 N.am    
  10 C10            0.2954     6.1539    -0.5066 C.2     
  11 C11            1.6348     5.5775    -0.3625 C.2     
  12 N12            1.7582     4.2846    -0.2375 N.2     
  13 O13            0.1514     7.3571    -0.6209 O.2     
  14 C14           -2.1235     5.8917    -0.6545 C.3     
  15 O15           -1.5809     3.2750    -0.3916 O.2     
  16 C16           -2.6852     6.2041     0.7085 C.ar    
  17 C17           -2.4798     7.4500     1.2713 C.ar    
  18 C18           -2.9948     7.7377     2.5210 C.ar    
  19 C19           -3.7167     6.7775     3.2095 C.ar    
  20 C20           -3.9218     5.5300     2.6449 C.ar    
  21 C21           -3.4103     5.2464     1.3928 C.ar    
  22 N22            2.7308    -0.6641    -1.5818 N.am    
  23 C23            3.8396    -0.0398    -2.0259 C.2     
  24 O24            4.0063     1.1389    -1.7935 O.2     
  25 C25            4.8725    -0.8063    -2.8113 C.3     
  26 C26            2.8521     6.4658    -0.3533 C.3     
  27 F27           -4.2203     7.0575     4.4315 F       
  28 F28            1.1614    -2.0013     0.2642 F       
  29 H29           -0.7314     1.9196     1.4073 H       
  30 H30           -0.4847    -0.5169     1.6388 H       
  31 H31            2.2774     1.9399    -1.6307 H       
  32 H32           -2.0775     6.8057    -1.2467 H       
  33 H33           -2.7655     5.1666    -1.1546 H       
  34 H34           -1.9163     8.1986     0.7342 H       
  35 H35           -2.8339     8.7109     2.9606 H       
  36 H36           -4.4848     4.7803     3.1810 H       
  37 H37           -3.5701     4.2734     0.9521 H       
  38 H38            2.5711    -1.5923    -1.8135 H       
  39 H39            4.5518    -1.8425    -2.9188 H       
  40 H40            4.9860    -0.3569    -3.7978 H       
  41 H41            5.8266    -0.7739    -2.2853 H       
  42 H42            3.0736     6.7680     0.6703 H       
  43 H43            3.7025     5.9211    -0.7634 H       
  44 H44            2.6607     7.3508    -0.9600 H       
@<TRIPOS>BOND
   1    1    2 ar
   2    1    6 ar
   3    1   29 1
   4    2    3 ar
   5    2   30 1
   6    3    4 ar
   7    3   28 1
   8    4    5 ar
   9    4   22 1
  10    5    6 ar
  11    5   31 1
  12    6    7 1
  13    7    8 am
  14    7   12 1
  15    8    9 am
  16    8   15 2
  17    9   10 am
  18    9   14 1
  19   10   11 1
  20   10   13 2
  21   11   12 2
  22   11   26 1
  23   14   16 1
  24   14   32 1
  25   14   33 1
  26   16   17 ar
  27   16   21 ar
  28   17   18 ar
  29   17   34 1
  30   18   19 ar
  31   18   35 1
  32   19   20 ar
  33   19   27 1
  34   20   21 ar
  35   20   36 1
  36   21   37 1
  37   22   23 am
  38   22   38 1
  39   23   24 2
  40   23   25 1
  41   25   39 1
  42   25   40 1
  43   25   41 1
  44   26   42 1
  45   26   43 1
  46   26   44 1

#	End of record

