#	Name: ASD01917995
#	Creating user name:	WinNT
#	Creation time:	15. 06. 2019 20:10

#	Modifying user name:	WinNT
#	Modification time:	15. 06. 2019 20:10

#	Program:	/corina/corina34_cracker 3.40 0067  02.08.2006

@<TRIPOS>MOLECULE
ASD01917995
  40   43    0    0    0
SMALL
NO_CHARGES


@<TRIPOS>ATOM
   1 N1             4.7299    -0.5693    -2.1945 N.ar    
   2 C2             5.2136     0.1637    -3.1771 C.ar    
   3 N3             5.1543     1.4801    -3.1584 N.ar    
   4 C4             4.6011     2.1204    -2.1416 C.ar    
   5 C5             4.0783     1.3835    -1.0837 C.ar    
   6 C6             4.1611    -0.0041    -1.1424 C.ar    
   7 O7             3.5021     2.0030    -0.0202 O.3     
   8 C8             3.5533     3.3614     0.0324 C.2     
   9 N9             2.4076     5.4393    -0.0284 N.pl3   
  10 C10            2.4072     4.0769    -0.0748 C.2     
  11 C11            4.7894     3.9988     0.2022 C.2     
  12 C12            4.8365     5.3863     0.2552 C.2     
  13 C13            3.5804     6.1308     0.1303 C.2     
  14 C14            6.1163     6.0912     0.4330 C.2     
  15 N15            6.1428     7.4378     0.4822 N.am    
  16 C16            7.3504     8.1028     0.6500 C.2     
  17 O17            7.1501     5.4583     0.5356 O.2     
  18 C18            1.4058     6.3696    -0.1118 C.2     
  19 C19            1.9825     7.5861    -0.0106 C.2     
  20 N20            3.3006     7.4215     0.1413 N.2     
  21 C21            5.8535    -0.5233    -4.3560 C.3     
  22 S22            8.8737     7.3424     0.8064 S.3     
  23 C23            9.6551     8.9144     0.9544 C.2     
  24 C24            8.7117     9.8547     0.8737 C.2     
  25 N25            7.4875     9.3909     0.7053 N.2     
  26 C26            9.0198    11.3272     0.9624 C.3     
  27 H27            4.5562     3.1994    -2.1327 H       
  28 H28            3.7668    -0.6109    -0.3407 H       
  29 H29            1.4703     3.5547    -0.2004 H       
  30 H30            5.6955     3.4180     0.2912 H       
  31 H31            5.3185     7.9424     0.4004 H       
  32 H32            0.3525     6.1680    -0.2398 H       
  33 H33            1.4648     8.5335    -0.0401 H       
  34 H34            5.0968    -0.7236    -5.1145 H       
  35 H35            6.6271     0.1200    -4.7754 H       
  36 H36            6.2995    -1.4632    -4.0306 H       
  37 H37           10.7129     9.0869     1.0875 H       
  38 H38            9.2168    11.7180    -0.0359 H       
  39 H39            8.1680    11.8511     1.3961 H       
  40 H40            9.8973    11.4776     1.5912 H       
@<TRIPOS>BOND
   1    1    2 ar
   2    1    6 ar
   3    2    3 ar
   4    2   21 1
   5    3    4 ar
   6    4    5 ar
   7    4   27 1
   8    5    6 ar
   9    5    7 1
  10    6   28 1
  11    7    8 1
  12    8   11 1
  13    8   10 2
  14    9   10 1
  15    9   18 1
  16    9   13 1
  17   10   29 1
  18   11   12 2
  19   11   30 1
  20   12   13 1
  21   12   14 1
  22   13   20 2
  23   14   15 am
  24   14   17 2
  25   15   16 1
  26   15   31 1
  27   16   22 1
  28   16   25 2
  29   18   19 2
  30   18   32 1
  31   19   20 1
  32   19   33 1
  33   21   34 1
  34   21   35 1
  35   21   36 1
  36   22   23 1
  37   23   24 2
  38   23   37 1
  39   24   25 1
  40   24   26 1
  41   26   38 1
  42   26   39 1
  43   26   40 1

#	End of record

