#	Name: ASD06710002
#	Creating user name:	WinNT
#	Creation time:	15. 06. 2019 21:08

#	Modifying user name:	WinNT
#	Modification time:	15. 06. 2019 21:08

#	Program:	/corina/corina34_cracker 3.40 0067  02.08.2006

@<TRIPOS>MOLECULE
ASD06710002
  30   31    0    0    0
SMALL
NO_CHARGES


@<TRIPOS>ATOM
   1 C1             0.7878     0.7630     1.6731 C.ar    
   2 C2            -0.1068     0.4789     0.6652 C.ar    
   3 C3             0.2755     0.5891    -0.6628 C.ar    
   4 C4             1.5559     0.9839    -0.9909 C.ar    
   5 C5             2.4733     1.2746     0.0116 C.ar    
   6 C6             2.0890     1.1649     1.3577 C.ar    
   7 N7             3.7633     1.6715    -0.3161 N.pl3   
   8 C8             4.8150     0.7540    -0.2485 C.ar    
   9 C9             4.5611    -0.5736     0.0715 C.ar    
  10 C10            5.6030    -1.4779     0.1376 C.ar    
  11 C11            6.8977    -1.0628    -0.1139 C.ar    
  12 C12            7.1541     0.2584    -0.4328 C.ar    
  13 C13            6.1165     1.1664    -0.5067 C.ar    
  14 C14            3.0510     1.4704     2.4305 C.2     
  15 O15            4.1469     1.9173     2.1547 O.2     
  16 O16            2.7158     1.2543     3.7178 O.3     
  17 C17            8.5670     0.7062    -0.7056 C.3     
  18 F18            9.4347    -0.3835    -0.5767 F       
  19 F19            8.6512     1.2182    -2.0049 F       
  20 F20            8.9265     1.6997     0.2113 F       
  21 H21            0.4830     0.6797     2.7059 H       
  22 H22           -1.1116     0.1682     0.9108 H       
  23 H23           -0.4336     0.3639    -1.4456 H       
  24 H24            1.8457     1.0669    -2.0280 H       
  25 H25            3.9342     2.5856    -0.5920 H       
  26 H26            3.5501    -0.8983     0.2688 H       
  27 H27            5.4062    -2.5102     0.3863 H       
  28 H28            7.7107    -1.7718    -0.0609 H       
  29 H29            6.3174     2.1979    -0.7557 H       
  30 H30            3.3801     1.4700     4.3866 H       
@<TRIPOS>BOND
   1    1    2 ar
   2    1    6 ar
   3    1   21 1
   4    2    3 ar
   5    2   22 1
   6    3    4 ar
   7    3   23 1
   8    4    5 ar
   9    4   24 1
  10    5    6 ar
  11    5    7 1
  12    6   14 1
  13    7    8 1
  14    7   25 1
  15    8    9 ar
  16    8   13 ar
  17    9   10 ar
  18    9   26 1
  19   10   11 ar
  20   10   27 1
  21   11   12 ar
  22   11   28 1
  23   12   13 ar
  24   12   17 1
  25   13   29 1
  26   14   15 2
  27   14   16 1
  28   16   30 1
  29   17   18 1
  30   17   19 1
  31   17   20 1

#	End of record

