#	Name: ASD03082234
#	Creating user name:	WinNT
#	Creation time:	15. 06. 2019 20:27

#	Modifying user name:	WinNT
#	Modification time:	15. 06. 2019 20:27

#	Program:	/corina/corina34_cracker 3.40 0067  02.08.2006

@<TRIPOS>MOLECULE
ASD03082234
  46   49    0    0    0
SMALL
NO_CHARGES


@<TRIPOS>ATOM
   1 N1            -0.4608     1.1308    -0.0153 N.am    
   2 N2            -0.1877    -0.2469    -0.0170 N.2     
   3 C3             1.1177    -0.3794    -0.0237 C.2     
   4 N4             1.6842     0.8305    -0.0264 N.2     
   5 C5             0.7511     1.7593    -0.0215 C.2     
   6 N6             1.8053    -1.5921    -0.0268 N.pl3   
   7 C7             1.1021    -2.7952     0.0945 C.ar    
   8 C8             1.6406    -3.9700    -0.4148 C.ar    
   9 C9             0.9449    -5.1566    -0.2935 C.ar    
  10 C10           -0.2891    -5.1759     0.3349 C.ar    
  11 C11           -0.8280    -4.0061     0.8428 C.ar    
  12 C12           -0.1328    -2.8179     0.7293 C.ar    
  13 C13            1.5286    -6.4315    -0.8457 C.3     
  14 F14            2.7710    -6.1612    -1.4292 F       
  15 F15            1.6915    -7.3571     0.1906 F       
  16 F16            0.6650    -6.9598    -1.8113 F       
  17 N17            0.5239     5.3392    -0.9499 N.ar    
  18 C18            0.3245     4.0376    -0.9486 C.ar    
  19 C19            0.9755     3.2209    -0.0231 C.ar    
  20 C20            1.8440     3.8084     0.9037 C.ar    
  21 C21            2.0190     5.1807     0.8603 C.ar    
  22 C22            1.3367     5.9204    -0.0883 C.ar    
  23 C23           -1.6753     1.7150    -0.0139 C.2     
  24 N24           -2.7864     0.9601    -0.1235 N.am    
  25 F25           -0.9683    -6.3379     0.4521 F       
  26 C26           -4.1066     1.5951    -0.1220 C.3     
  27 O27           -1.7686     2.9224     0.0862 O.2     
  28 C28           -5.2971     0.7489     0.3335 C.3     
  29 C29           -5.1298     1.1002    -1.1462 C.3     
  30 C30            2.5697     2.9686     1.9231 C.3     
  31 H31            2.7714    -1.6016    -0.1130 H       
  32 H32            2.6026    -3.9553    -0.9055 H       
  33 H33           -1.7908    -4.0233     1.3319 H       
  34 H34           -0.5513    -1.9064     1.1298 H       
  35 H35           -0.3487     3.5984    -1.6700 H       
  36 H36            2.6811     5.6687     1.5602 H       
  37 H37            1.4716     6.9914    -0.1246 H       
  38 H38           -2.7119    -0.0038    -0.2034 H       
  39 H39           -4.1177     2.6558     0.1290 H       
  40 H40           -5.0980    -0.2804     0.6320 H       
  41 H41           -6.0916     1.2528     0.8837 H       
  42 H42           -5.8143     1.8354    -1.5694 H       
  43 H43           -4.8207     0.3021    -1.8212 H       
  44 H44            3.5264     2.6454     1.5129 H       
  45 H45            2.7411     3.5581     2.8238 H       
  46 H46            1.9664     2.0950     2.1700 H       
@<TRIPOS>BOND
   1    1    2 1
   2    1    5 1
   3    1   23 am
   4    2    3 2
   5    3    4 1
   6    3    6 1
   7    4    5 2
   8    5   19 1
   9    6    7 1
  10    6   31 1
  11    7    8 ar
  12    7   12 ar
  13    8    9 ar
  14    8   32 1
  15    9   10 ar
  16    9   13 1
  17   10   11 ar
  18   10   25 1
  19   11   12 ar
  20   11   33 1
  21   12   34 1
  22   13   14 1
  23   13   15 1
  24   13   16 1
  25   17   18 ar
  26   17   22 ar
  27   18   19 ar
  28   18   35 1
  29   19   20 ar
  30   20   21 ar
  31   20   30 1
  32   21   22 ar
  33   21   36 1
  34   22   37 1
  35   23   24 am
  36   23   27 2
  37   24   26 1
  38   24   38 1
  39   26   28 1
  40   26   29 1
  41   26   39 1
  42   28   29 1
  43   28   40 1
  44   28   41 1
  45   29   42 1
  46   29   43 1
  47   30   44 1
  48   30   45 1
  49   30   46 1

#	End of record

