#	Name: ASD00890003
#	Creating user name:	WinNT
#	Creation time:	15. 06. 2019 18:53

#	Modifying user name:	WinNT
#	Modification time:	15. 06. 2019 18:53

#	Program:	/corina/corina34_cracker 3.40 0067  02.08.2006

@<TRIPOS>MOLECULE
ASD00890003
  50   53    0    0    0
SMALL
NO_CHARGES


@<TRIPOS>ATOM
   1 C1             0.2243     1.2003    -0.1972 C.ar    
   2 C2             0.3328    -0.1741    -0.3114 C.ar    
   3 C3             1.5764    -0.7651    -0.4060 C.ar    
   4 C4             2.7237     0.0251    -0.3869 C.ar    
   5 C5             2.6087     1.4084    -0.2722 C.ar    
   6 C6             1.3600     1.9893    -0.1777 C.ar    
   7 S7             1.2127     3.7391    -0.0331 S.o2    
   8 O8            -0.0442     3.9866     0.5819 O.2     
   9 O9             2.4446     4.2026     0.5024 O.2     
  10 N10            1.1105     4.3510    -1.5686 N.am    
  11 C11            4.0642    -0.6052    -0.4879 C.2     
  12 C12            4.3207    -1.9403    -0.6036 C.2     
  13 N13            5.6586    -2.0946    -0.6667 N.pl3   
  14 N14            6.2494    -0.8276    -0.5886 N.2     
  15 C15            5.3020     0.0667    -0.4878 C.2     
  16 C16            6.3712    -3.3682    -0.7945 C.3     
  17 C17            7.2828    -3.3157    -1.9934 C.ar    
  18 C18            8.5829    -2.8672    -1.8540 C.ar    
  19 C19            9.4191    -2.8190    -2.9537 C.ar    
  20 C20            8.9553    -3.2197    -4.1927 C.ar    
  21 C21            7.6555    -3.6690    -4.3320 C.ar    
  22 C22            6.8206    -3.7213    -3.2314 C.ar    
  23 C23            0.0680     3.9667    -2.4010 C.ar    
  24 C24            0.2882     3.8028    -3.7788 C.ar    
  25 C25           -0.7702     3.4156    -4.6060 C.ar    
  26 C26           -2.0187     3.1976    -4.0677 C.ar    
  27 C27           -2.2336     3.3606    -2.7067 C.ar    
  28 C28           -1.1964     3.7368    -1.8753 C.ar    
  29 C29            1.6254     4.0380    -4.3481 C.2     
  30 O30            1.8322     3.8796    -5.6705 O.3     
  31 O31            2.5428     4.3749    -3.6257 O.2     
  32 Cl32          -3.8137     3.0830    -2.0435 Cl      
  33 H33           -0.7509     1.6591    -0.1275 H       
  34 H34           -0.5572    -0.7857    -0.3261 H       
  35 H35            1.6600    -1.8382    -0.4944 H       
  36 H36            3.4950     2.0254    -0.2565 H       
  37 H37            1.7791     4.9778    -1.8863 H       
  38 H38            3.5852    -2.7304    -0.6384 H       
  39 H39            5.4438     1.1345    -0.4100 H       
  40 H40            6.9623    -3.5455     0.1039 H       
  41 H41            5.6509    -4.1765    -0.9209 H       
  42 H42            8.9453    -2.5542    -0.8859 H       
  43 H43           10.4347    -2.4680    -2.8449 H       
  44 H44            9.6084    -3.1813    -5.0520 H       
  45 H45            7.2930    -3.9817    -5.3001 H       
  46 H46            5.8051    -4.0723    -3.3402 H       
  47 H47           -0.6088     3.2879    -5.6662 H       
  48 H48           -2.8351     2.8985    -4.7083 H       
  49 H49           -1.3715     3.8616    -0.8169 H       
  50 H50            2.7269     4.0454    -5.9979 H       
@<TRIPOS>BOND
   1    1    2 ar
   2    1    6 ar
   3    1   33 1
   4    2    3 ar
   5    2   34 1
   6    3    4 ar
   7    3   35 1
   8    4    5 ar
   9    4   11 1
  10    5    6 ar
  11    5   36 1
  12    6    7 1
  13    7    8 2
  14    7    9 2
  15    7   10 am
  16   10   23 1
  17   10   37 1
  18   11   12 2
  19   11   15 1
  20   12   13 1
  21   12   38 1
  22   13   14 1
  23   13   16 1
  24   14   15 2
  25   15   39 1
  26   16   17 1
  27   16   40 1
  28   16   41 1
  29   17   18 ar
  30   17   22 ar
  31   18   19 ar
  32   18   42 1
  33   19   20 ar
  34   19   43 1
  35   20   21 ar
  36   20   44 1
  37   21   22 ar
  38   21   45 1
  39   22   46 1
  40   23   24 ar
  41   23   28 ar
  42   24   25 ar
  43   24   29 1
  44   25   26 ar
  45   25   47 1
  46   26   27 ar
  47   26   48 1
  48   27   28 ar
  49   27   32 1
  50   28   49 1
  51   29   30 1
  52   29   31 2
  53   30   50 1

#	End of record

