#	Name: ASD03240644
#	Creating user name:	WinNT
#	Creation time:	15. 06. 2019 20:35

#	Modifying user name:	WinNT
#	Modification time:	15. 06. 2019 20:35

#	Program:	/corina/corina34_cracker 3.40 0067  02.08.2006

@<TRIPOS>MOLECULE
ASD03240644
  63   70    0    0    0
SMALL
NO_CHARGES


@<TRIPOS>ATOM
   1 C1            -0.0166     1.3755     0.0096 C.ar    
   2 C2             0.0021    -0.0041     0.0020 C.ar    
   3 N3             1.1422    -0.6683    -0.0054 N.ar    
   4 C4             2.3145    -0.0481    -0.0053 C.ar    
   5 C5             2.3702     1.3442    -0.0124 C.ar    
   6 C6             1.1860     2.0698     0.0018 C.ar    
   7 N7             3.4820    -0.8058     0.0229 N.pl3   
   8 C8             4.3592    -0.7185     1.1006 C.ar    
   9 C9             4.9948     0.4902     1.4040 C.ar    
  10 C10            4.7628     1.6842     0.5618 C.2     
  11 N11            3.5939     2.0276    -0.0512 N.pl3   
  12 C12            4.6056    -1.8378     1.8844 C.ar    
  13 C13            5.4653    -1.7516     2.9628 C.ar    
  14 C14            6.0855    -0.5531     3.2713 C.ar    
  15 C15            5.8556     0.5674     2.4986 C.ar    
  16 N16            5.6740     2.5952     0.2844 N.2     
  17 C17            5.1437     3.5403    -0.5069 C.2     
  18 C18            3.8226     3.2040    -0.7377 C.2     
  19 C19            2.8494     3.9535    -1.5551 C.ar    
  20 C20            2.7496     5.3415    -1.4306 C.ar    
  21 C21            2.0272     3.2792    -2.4615 C.ar    
  22 C22            1.1197     3.9863    -3.2222 C.ar    
  23 C23            1.0228     5.3604    -3.0898 C.ar    
  24 C24            1.8375     6.0355    -2.1979 C.ar    
  25 C25            5.8477     4.7306    -1.0379 C.ar    
  26 C26            0.0294     6.1260    -3.9253 C.3     
  27 C27            6.8170     5.3711    -0.2665 C.ar    
  28 N28           -1.0290     5.2710    -4.4792 N.3     
  29 C29           -0.5005     7.3974    -3.2415 C.3     
  30 C30           -0.4049     8.0815    -4.6154 C.3     
  31 C31            0.6828     7.0521    -4.9647 C.3     
  32 C32            7.4728     6.4819    -0.7656 C.ar    
  33 C33            7.1638     6.9593    -2.0383 C.ar    
  34 C34            6.1994     6.3214    -2.8040 C.ar    
  35 C35            5.5466     5.2097    -2.3128 C.ar    
  36 O36            8.4430     7.2763    -0.2255 O.3     
  37 C37            9.0140     7.9940    -1.3354 C.3     
  38 O38            7.9411     8.0525    -2.2937 O.3     
  39 H39           -0.9556     1.9091     0.0170 H       
  40 H40           -0.9306    -0.5486     0.0025 H       
  41 H41            1.2002     3.1497     0.0061 H       
  42 H42            3.6866    -1.4002    -0.7157 H       
  43 H43            4.1247    -2.7763     1.6513 H       
  44 H44            5.6544    -2.6251     3.5692 H       
  45 H45            6.7517    -0.4946     4.1192 H       
  46 H46            6.3408     1.5013     2.7412 H       
  47 H47            3.3848     5.8696    -0.7350 H       
  48 H48            2.1023     2.2069    -2.5663 H       
  49 H49            0.4836     3.4664    -3.9232 H       
  50 H50            1.7562     7.1079    -2.0995 H       
  51 H51            7.0552     5.0003     0.7195 H       
  52 H52           -0.6374     4.4629    -4.9392 H       
  53 H53           -1.6845     4.9970    -3.7627 H       
  54 H54           -1.5213     7.3011    -2.8717 H       
  55 H55            0.1824     7.8109    -2.4993 H       
  56 H56           -1.3089     7.9825    -5.2163 H       
  57 H57           -0.0370     9.1064    -4.5681 H       
  58 H58            1.6892     7.3712    -4.6936 H       
  59 H59            0.6173     6.6771    -5.9860 H       
  60 H60            5.9619     6.6933    -3.7898 H       
  61 H61            4.7964     4.7153    -2.9120 H       
  62 H62            9.3105     8.9977    -1.0307 H       
  63 H63            9.8649     7.4504    -1.7460 H       
@<TRIPOS>BOND
   1    1    2 ar
   2    1    6 ar
   3    1   39 1
   4    2    3 ar
   5    2   40 1
   6    3    4 ar
   7    4    5 ar
   8    4    7 1
   9    5    6 ar
  10    5   11 1
  11    6   41 1
  12    7    8 1
  13    7   42 1
  14    8    9 ar
  15    8   12 ar
  16    9   10 1
  17    9   15 ar
  18   10   11 1
  19   10   16 2
  20   11   18 1
  21   12   13 ar
  22   12   43 1
  23   13   14 ar
  24   13   44 1
  25   14   15 ar
  26   14   45 1
  27   15   46 1
  28   16   17 1
  29   17   18 2
  30   17   25 1
  31   18   19 1
  32   19   20 ar
  33   19   21 ar
  34   20   24 ar
  35   20   47 1
  36   21   22 ar
  37   21   48 1
  38   22   23 ar
  39   22   49 1
  40   23   24 ar
  41   23   26 1
  42   24   50 1
  43   25   27 ar
  44   25   35 ar
  45   26   29 1
  46   26   28 1
  47   26   31 1
  48   27   32 ar
  49   27   51 1
  50   28   52 1
  51   28   53 1
  52   29   30 1
  53   29   54 1
  54   29   55 1
  55   30   31 1
  56   30   56 1
  57   30   57 1
  58   31   58 1
  59   31   59 1
  60   32   33 ar
  61   32   36 1
  62   33   34 ar
  63   33   38 1
  64   34   35 ar
  65   34   60 1
  66   35   61 1
  67   36   37 1
  68   37   38 1
  69   37   62 1
  70   37   63 1

#	End of record

