#	Name: ASD05313337
#	Creating user name:	WinNT
#	Creation time:	15. 06. 2019 20:59

#	Modifying user name:	WinNT
#	Modification time:	15. 06. 2019 20:59

#	Program:	/corina/corina34_cracker 3.40 0067  02.08.2006

@<TRIPOS>MOLECULE
ASD05313337
  42   44    0    0    0
SMALL
NO_CHARGES


@<TRIPOS>ATOM
   1 C1             0.2205     0.5741     0.7629 C.2     
   2 C2             0.2890    -0.8288     0.2016 C.3     
   3 N3             1.2579     1.4448     0.7336 N.pl3   
   4 N4             1.5406    -0.9244    -0.5718 N.am    
   5 C5             2.7596    -0.3422     0.0102 C.3     
   6 C6             2.5742     1.1726     0.1531 C.3     
   7 N7            -0.7953     1.1444     1.3429 N.2     
   8 C8            -0.4598     2.3886     1.7089 C.2     
   9 C9             0.8333     2.6012     1.3368 C.2     
  10 C10            1.6239     3.8339     1.5448 C.ar    
  11 C11            2.7994     4.0425     0.8225 C.ar    
  12 C12            3.5320     5.1947     1.0208 C.ar    
  13 C13            3.1037     6.1418     1.9337 C.ar    
  14 C14            1.9391     5.9409     2.6531 C.ar    
  15 C15            1.1943     4.7957     2.4599 C.ar    
  16 C16            1.5672    -1.5281    -1.7765 C.2     
  17 O17            2.5836    -1.5101    -2.4432 O.2     
  18 C18            0.3613    -2.2116    -2.2868 C.ar    
  19 C19           -0.0378    -2.0331    -3.6144 C.ar    
  20 C20           -1.1659    -2.6749    -4.0846 C.ar    
  21 C21           -1.9008    -3.4936    -3.2438 C.ar    
  22 C22           -1.5097    -3.6740    -1.9271 C.ar    
  23 C23           -0.3817    -3.0432    -1.4467 C.ar    
  24 Cl24          -3.3186    -4.2970    -3.8420 Cl      
  25 Cl25           0.8826    -1.0064    -4.6692 Cl      
  26 H26            0.2982    -1.5545     1.0149 H       
  27 H27           -0.5655    -1.0105    -0.4503 H       
  28 H28            2.9405    -0.7813     0.9913 H       
  29 H29            3.6081    -0.5454    -0.6431 H       
  30 H30            2.6434     1.6420    -0.8282 H       
  31 H31            3.3498     1.5744     0.8051 H       
  32 H32           -1.1006     3.0973     2.2123 H       
  33 H33            3.1352     3.3036     0.1100 H       
  34 H34            4.4420     5.3574     0.4623 H       
  35 H35            3.6812     7.0417     2.0858 H       
  36 H36            1.6103     6.6839     3.3646 H       
  37 H37            0.2832     4.6419     3.0191 H       
  38 H38           -1.4761    -2.5380    -5.1100 H       
  39 H39           -2.0874    -4.3139    -1.2765 H       
  40 H40           -0.0757    -3.1889    -0.4212 H       
  41 Cl41           9.4420    12.0417     8.3646 Cl      
  42 H42            9.4420    13.4117     8.3646 H       
@<TRIPOS>BOND
   1    1    2 1
   2    1    3 1
   3    1    7 2
   4    2    4 1
   5    2   26 1
   6    2   27 1
   7    3    6 1
   8    3    9 1
   9    4    5 1
  10    4   16 am
  11    5    6 1
  12    5   28 1
  13    5   29 1
  14    6   30 1
  15    6   31 1
  16    7    8 1
  17    8    9 2
  18    8   32 1
  19    9   10 1
  20   10   11 ar
  21   10   15 ar
  22   11   12 ar
  23   11   33 1
  24   12   13 ar
  25   12   34 1
  26   13   14 ar
  27   13   35 1
  28   14   15 ar
  29   14   36 1
  30   15   37 1
  31   16   17 2
  32   16   18 1
  33   18   19 ar
  34   18   23 ar
  35   19   20 ar
  36   19   25 1
  37   20   21 ar
  38   20   38 1
  39   21   22 ar
  40   21   24 1
  41   22   23 ar
  42   22   39 1
  43   23   40 1
  44   41   42 1

#	End of record

