#	Name: ASD08170789
#	Creating user name:	WinNT
#	Creation time:	15. 06. 2019 21:17

#	Modifying user name:	WinNT
#	Modification time:	15. 06. 2019 21:17

#	Program:	/corina/corina34_cracker 3.40 0067  02.08.2006

@<TRIPOS>MOLECULE
ASD08170789
  70   73    0    0    0
SMALL
NO_CHARGES


@<TRIPOS>ATOM
   1 C1            -0.0162     1.3436     0.0094 C.2     
   2 N2             0.0021    -0.0041     0.0020 N.am    
   3 C3             1.2158    -0.6830    -0.0132 C.2     
   4 S4             1.4076    -2.3853    -0.0242 S.3     
   5 C5             3.1581    -2.1679    -0.0397 C.2     
   6 C6             4.1900    -3.2660    -0.0555 C.3     
   7 C7             7.0114    -6.2545     2.7867 C.3     
   8 C8             7.3689    -6.6282     4.2022 C.2     
   9 S9             8.6538    -5.9107     5.1748 S.3     
  10 C10            8.2316    -6.9535     6.4667 C.2     
  11 N11            2.3916    -0.1314    -0.0271 N.2     
  12 N12            3.3971    -0.8949    -0.0352 N.2     
  13 N13            6.7844    -7.5301     4.9251 N.2     
  14 N14            7.2362    -7.6990     6.0918 N.2     
  15 O15            1.0258     1.9642     0.0028 O.2     
  16 C16           -1.3314     2.0792     0.0197 C.3     
  17 N17            8.8522    -6.9952     7.7107 N.am    
  18 C18            8.4254    -7.8647     8.6478 C.2     
  19 C19            9.0978    -7.9100     9.9957 C.3     
  20 O20            7.5001    -8.6107     8.4064 O.2     
  21 C21            4.5530    -3.6454     1.3816 C.3     
  22 C22            5.9637    -5.1397     2.8027 C.3     
  23 C23           -1.0722     3.5871     0.0266 C.3     
  24 C24            5.6007    -4.7603     1.3656 C.3     
  25 C25           -2.4075     4.3340     0.0370 C.3     
  26 C26           -2.1523     5.8192     0.0439 C.ar    
  27 C27           -2.0409     6.5069    -1.1501 C.ar    
  28 C28           -1.8067     7.8693    -1.1438 C.ar    
  29 C29           -1.6844     8.5440     0.0565 C.ar    
  30 C30           -1.7967     7.8565     1.2505 C.ar    
  31 C31           -2.0351     6.4949     1.2442 C.ar    
  32 C32            8.4262    -8.9748    10.8652 C.3     
  33 C33            9.0987    -9.0201    12.2131 C.ar    
  34 C34            8.6383    -8.2204    13.2424 C.ar    
  35 C35            9.2551    -8.2618    14.4788 C.ar    
  36 C36           10.3321    -9.1034    14.6860 C.ar    
  37 C37           10.7919    -9.9038    13.6570 C.ar    
  38 C38           10.1723    -9.8655    12.4219 C.ar    
  39 H39           -0.8313    -0.5005     0.0073 H       
  40 H40            3.7854    -4.1375    -0.5701 H       
  41 H41            5.0824    -2.9185    -0.5760 H       
  42 H42            7.9038    -5.9070     2.2662 H       
  43 H43            6.6068    -7.1260     2.2721 H       
  44 H44           -1.9035     1.8130    -0.8691 H       
  45 H45           -1.8951     1.8033     0.9108 H       
  46 H46            9.5922    -6.3986     7.9038 H       
  47 H47           10.1517    -8.1570     9.8679 H       
  48 H48            9.0087    -6.9371    10.4791 H       
  49 H49            4.9576    -2.7739     1.8963 H       
  50 H50            3.6606    -3.9929     1.9021 H       
  51 H51            5.0713    -5.4871     3.3232 H       
  52 H52            6.3683    -4.2682     3.3174 H       
  53 H53           -0.5001     3.8533     0.9154 H       
  54 H54           -0.5085     3.8630    -0.8645 H       
  55 H55            5.1961    -5.6318     0.8510 H       
  56 H56            6.4931    -4.4128     0.8451 H       
  57 H57           -2.9797     4.0678    -0.8517 H       
  58 H58           -2.9712     4.0581     0.9282 H       
  59 H59           -2.1365     5.9798    -2.0878 H       
  60 H60           -1.7190     8.4064    -2.0766 H       
  61 H61           -1.5007     9.6083     0.0614 H       
  62 H62           -1.7007     8.3836     2.1882 H       
  63 H63           -2.1229     5.9577     2.1770 H       
  64 H64            7.3723    -8.7278    10.9930 H       
  65 H65            8.5153    -9.9477    10.3819 H       
  66 H66            7.7969    -7.5629    13.0805 H       
  67 H67            8.8959    -7.6365    15.2827 H       
  68 H68           10.8144    -9.1353    15.6518 H       
  69 H69           11.6334   -10.5610    13.8188 H       
  70 H70           10.5315   -10.4908    11.6179 H       
@<TRIPOS>BOND
   1    1    2 am
   2    1   15 2
   3    1   16 1
   4    2    3 1
   5    2   39 1
   6    3    4 1
   7    3   11 2
   8    4    5 1
   9    5    6 1
  10    5   12 2
  11    6   21 1
  12    6   40 1
  13    6   41 1
  14    7    8 1
  15    7   22 1
  16    7   42 1
  17    7   43 1
  18    8    9 1
  19    8   13 2
  20    9   10 1
  21   10   17 1
  22   10   14 2
  23   11   12 1
  24   13   14 1
  25   16   23 1
  26   16   44 1
  27   16   45 1
  28   17   18 am
  29   17   46 1
  30   18   19 1
  31   18   20 2
  32   19   32 1
  33   19   47 1
  34   19   48 1
  35   21   24 1
  36   21   49 1
  37   21   50 1
  38   22   24 1
  39   22   51 1
  40   22   52 1
  41   23   25 1
  42   23   53 1
  43   23   54 1
  44   24   55 1
  45   24   56 1
  46   25   26 1
  47   25   57 1
  48   25   58 1
  49   26   27 ar
  50   26   31 ar
  51   27   28 ar
  52   27   59 1
  53   28   29 ar
  54   28   60 1
  55   29   30 ar
  56   29   61 1
  57   30   31 ar
  58   30   62 1
  59   31   63 1
  60   32   33 1
  61   32   64 1
  62   32   65 1
  63   33   34 ar
  64   33   38 ar
  65   34   35 ar
  66   34   66 1
  67   35   36 ar
  68   35   67 1
  69   36   37 ar
  70   36   68 1
  71   37   38 ar
  72   37   69 1
  73   38   70 1

#	End of record

