#	Name: ASD01941029
#	Creating user name:	WinNT
#	Creation time:	15. 06. 2019 20:13

#	Modifying user name:	WinNT
#	Modification time:	15. 06. 2019 20:13

#	Program:	/corina/corina34_cracker 3.40 0067  02.08.2006

@<TRIPOS>MOLECULE
ASD01941029
  50   54    0    0    0
SMALL
NO_CHARGES


@<TRIPOS>ATOM
   1 N1            -0.0585     1.2521    -0.0765 N.am    
   2 C2             0.0009    -0.0830     0.0444 C.2     
   3 N3            -1.0941    -0.8628     0.0834 N.am    
   4 C4            -2.3547    -0.3044    -0.0016 C.2     
   5 C5            -2.4706     1.1057    -0.1303 C.2     
   6 C6            -1.2405     1.9006    -0.1617 C.2     
   7 C7            -3.5019    -1.0692     0.0332 C.2     
   8 C8            -4.7467    -0.4378    -0.0589 C.2     
   9 N9            -4.8415     0.8978    -0.1807 N.am    
  10 C10           -3.7316     1.6867    -0.2173 C.2     
  11 C11           -0.9553    -2.2510     0.2108 C.ar    
  12 C12           -1.3602    -2.8864     1.3771 C.ar    
  13 C13           -1.2223    -4.2551     1.5001 C.ar    
  14 C14           -0.6811    -4.9931     0.4623 C.ar    
  15 C15           -0.2768    -4.3625    -0.7010 C.ar    
  16 C16           -0.4179    -2.9948    -0.8314 C.ar    
  17 O17           -5.7645    -1.1110    -0.0285 O.2     
  18 N18           -3.8563     3.0433    -0.3415 N.pl3   
  19 C19           -3.8045     3.6372    -1.6064 C.ar    
  20 C20           -3.8192     5.0209    -1.7267 C.ar    
  21 C21           -3.7681     5.6043    -2.9774 C.ar    
  22 C22           -3.7027     4.8125    -4.1093 C.ar    
  23 C23           -3.6879     3.4346    -3.9930 C.ar    
  24 C24           -3.7326     2.8449    -2.7449 C.ar    
  25 O25            1.0930    -0.6111     0.1216 O.2     
  26 C26            1.1861     2.0242    -0.1107 C.3     
  27 O27           -1.2821     3.1120    -0.2704 O.2     
  28 C28            2.1263     1.7966    -1.2961 C.3     
  29 C29            1.3235     3.0952    -1.1946 C.3     
  30 C30           -6.1656     1.5175    -0.2745 C.3     
  31 Br31          -0.4932    -6.8668     0.6345 Br      
  32 H32           -3.4399    -2.1431     0.1300 H       
  33 H33           -1.7824    -2.3108     2.1876 H       
  34 H34           -1.5367    -4.7497     2.4072 H       
  35 H35            0.1452    -4.9408    -1.5095 H       
  36 H36           -0.1021    -2.5030    -1.7396 H       
  37 H37           -3.9806     3.5932     0.4478 H       
  38 H38           -3.8710     5.6398    -0.8432 H       
  39 H39           -3.7795     6.6801    -3.0717 H       
  40 H40           -3.6635     5.2712    -5.0862 H       
  41 H41           -3.6371     2.8190    -4.8789 H       
  42 H42           -3.7210     1.7687    -2.6548 H       
  43 H43            1.6395     2.2283     0.8593 H       
  44 H44            3.1982     1.8514    -1.1060 H       
  45 H45            1.8188     1.0725    -2.0505 H       
  46 H46            0.4879     3.2253    -1.8823 H       
  47 H47            1.8673     4.0043    -0.9379 H       
  48 H48           -6.9284     0.7401    -0.3176 H       
  49 H49           -6.3357     2.1453     0.6002 H       
  50 H50           -6.2179     2.1282    -1.1758 H       
@<TRIPOS>BOND
   1    1    2 am
   2    1   26 1
   3    1    6 am
   4    2    3 am
   5    2   25 2
   6    3    4 1
   7    3   11 1
   8    4    5 1
   9    4    7 2
  10    5    6 1
  11    5   10 2
  12    6   27 2
  13    7    8 1
  14    7   32 1
  15    8    9 am
  16    8   17 2
  17    9   10 1
  18    9   30 1
  19   10   18 1
  20   11   12 ar
  21   11   16 ar
  22   12   13 ar
  23   12   33 1
  24   13   14 ar
  25   13   34 1
  26   14   15 ar
  27   14   31 1
  28   15   16 ar
  29   15   35 1
  30   16   36 1
  31   18   19 1
  32   18   37 1
  33   19   20 ar
  34   19   24 ar
  35   20   21 ar
  36   20   38 1
  37   21   22 ar
  38   21   39 1
  39   22   23 ar
  40   22   40 1
  41   23   24 ar
  42   23   41 1
  43   24   42 1
  44   26   28 1
  45   26   29 1
  46   26   43 1
  47   28   29 1
  48   28   44 1
  49   28   45 1
  50   29   46 1
  51   29   47 1
  52   30   48 1
  53   30   49 1
  54   30   50 1

#	End of record

