#	Name: ASD01881024
#	Creating user name:	WinNT
#	Creation time:	15. 06. 2019 19:41

#	Modifying user name:	WinNT
#	Modification time:	15. 06. 2019 19:41

#	Program:	/corina/corina34_cracker 3.40 0067  02.08.2006

@<TRIPOS>MOLECULE
ASD01881024
  45   46    0    0    0
SMALL
NO_CHARGES


@<TRIPOS>ATOM
   1 O1            -0.0176     1.4526     0.0209 O.3     
   2 C2             0.0020    -0.0040    -0.0063 C.3     
   3 C3             1.5018    -0.3565    -0.0301 C.3     
   4 N4             2.1699     0.9538    -0.0135 N.am    
   5 C5             1.2374     1.9158     0.0150 C.2     
   6 C6            -0.6628    -0.5728     1.2489 C.3     
   7 C7            -2.1542    -0.2316     1.2352 C.3     
   8 C8            -2.8190    -0.8004     2.4904 C.3     
   9 C9            -4.3104    -0.4592     2.4767 C.3     
  10 C10           -4.9752    -1.0280     3.7319 C.3     
  11 C11           -6.4666    -0.6868     3.7183 C.3     
  12 O12            1.5071     3.1003     0.0330 O.2     
  13 C13            3.5485     1.1612    -0.0249 C.ar    
  14 C14            4.4144     0.0758     0.0669 C.ar    
  15 C15            5.7760     0.2768     0.0560 C.ar    
  16 C16            6.2888     1.5734    -0.0474 C.ar    
  17 C17            5.4157     2.6615    -0.1395 C.ar    
  18 C18            4.0553     2.4526    -0.1337 C.ar    
  19 C19            7.7469     1.7927    -0.0589 C.2     
  20 O20            8.5043     0.8460     0.0215 O.2     
  21 O21            8.2393     3.0431    -0.1587 O.3     
  22 C22            9.6845     3.1839    -0.1639 C.3     
  23 H23           -0.4923    -0.3761    -0.9037 H       
  24 H24            1.7731    -0.9357     0.8525 H       
  25 H25            1.7524    -0.9026    -0.9395 H       
  26 H26           -0.5380    -1.6555     1.2672 H       
  27 H27           -0.1988    -0.1385     2.1344 H       
  28 H28           -2.2791     0.8511     1.2169 H       
  29 H29           -2.6182    -0.6659     0.3497 H       
  30 H30           -2.6942    -1.8831     2.5087 H       
  31 H31           -2.3550    -0.3661     3.3759 H       
  32 H32           -4.4353     0.6235     2.4584 H       
  33 H33           -4.7744    -0.8935     1.5912 H       
  34 H34           -4.8504    -2.1107     3.7502 H       
  35 H35           -4.5112    -0.5937     4.6174 H       
  36 H36           -6.9403    -1.0921     4.6124 H       
  37 H37           -6.5915     0.3959     3.6999 H       
  38 H38           -6.9307    -1.1211     2.8327 H       
  39 H39            4.0176    -0.9254     0.1472 H       
  40 H40            6.4475    -0.5661     0.1277 H       
  41 H41            5.8084     3.6645    -0.2192 H       
  42 H42            3.3803     3.2926    -0.2051 H       
  43 H43           10.0920     2.7817     0.7636 H       
  44 H44           10.0998     2.6371    -1.0104 H       
  45 H45            9.9465     4.2385    -0.2487 H       
@<TRIPOS>BOND
   1    1    2 1
   2    1    5 1
   3    2    3 1
   4    2    6 1
   5    2   23 1
   6    3    4 1
   7    3   24 1
   8    3   25 1
   9    4    5 am
  10    4   13 1
  11    5   12 2
  12    6    7 1
  13    6   26 1
  14    6   27 1
  15    7    8 1
  16    7   28 1
  17    7   29 1
  18    8    9 1
  19    8   30 1
  20    8   31 1
  21    9   10 1
  22    9   32 1
  23    9   33 1
  24   10   11 1
  25   10   34 1
  26   10   35 1
  27   11   36 1
  28   11   37 1
  29   11   38 1
  30   13   14 ar
  31   13   18 ar
  32   14   15 ar
  33   14   39 1
  34   15   16 ar
  35   15   40 1
  36   16   17 ar
  37   16   19 1
  38   17   18 ar
  39   17   41 1
  40   18   42 1
  41   19   20 2
  42   19   21 1
  43   21   22 1
  44   22   43 1
  45   22   44 1
  46   22   45 1

#	End of record

