#	Name: ASD01410555
#	Creating user name:	WinNT
#	Creation time:	15. 06. 2019 19:18

#	Modifying user name:	WinNT
#	Modification time:	15. 06. 2019 19:18

#	Program:	/corina/corina34_cracker 3.40 0067  02.08.2006

@<TRIPOS>MOLECULE
ASD01410555
  67   69    0    0    0
SMALL
NO_CHARGES


@<TRIPOS>ATOM
   1 C1             0.2721    -3.1454     1.7873 C.ar    
   2 C2             1.0421    -3.6269     2.8369 C.ar    
   3 C3             2.4159    -3.4970     2.7820 C.ar    
   4 N4             3.0001    -2.9230     1.7478 N.ar    
   5 C5             2.3004    -2.4519     0.7286 C.ar    
   6 C6             0.9148    -2.5483     0.7167 C.ar    
   7 O7             2.9423    -1.8689    -0.3148 O.3     
   8 C8             4.2921    -1.7262    -0.2346 C.ar    
   9 C9             5.1176    -2.8277    -0.4259 C.ar    
  10 C10            6.4890    -2.6939    -0.3467 C.ar    
  11 C11            7.0538    -1.4557    -0.0744 C.ar    
  12 C12            6.2258    -0.3395     0.1198 C.ar    
  13 C13            4.8392    -0.4842     0.0315 C.ar    
  14 N14            8.4391    -1.3214     0.0064 N.am    
  15 C15            9.1618    -1.1084    -1.1111 C.2     
  16 C16            9.1092    -1.4118     1.3060 C.3     
  17 O17           10.3724    -1.0656    -1.0514 O.2     
  18 C18            8.4656    -0.9236    -2.4348 C.3     
  19 C19            9.4200    -1.2999    -3.5699 C.3     
  20 C20            8.7133    -1.1122    -4.9138 C.3     
  21 C21            8.2896     0.3499    -5.0674 C.3     
  22 C22            7.3352     0.7263    -3.9323 C.3     
  23 C23            8.0420     0.5386    -2.5884 C.3     
  24 C24            7.5828     0.5376    -6.4113 C.3     
  25 C25            9.3688    -2.8810     1.6449 C.3     
  26 O26           10.3150    -3.4229     0.7212 O.3     
  27 C27           10.5582    -4.8207     0.8912 C.3     
  28 C28            9.5462    -5.6185     0.0664 C.3     
  29 C29           11.9753    -5.1529     0.4196 C.3     
  30 C30            0.1219    -2.0102    -0.4464 C.3     
  31 F31           -1.2417    -2.2268    -0.2212 F       
  32 F32            0.3606    -0.6381    -0.5785 F       
  33 F33            0.5108    -2.6662    -1.6193 F       
  34 C34            6.8162     0.9794     0.4100 C.2     
  35 O35            8.0230     1.1025     0.4816 O.2     
  36 O36            6.0177     2.0489     0.5959 O.3     
  37 H37           -0.8038    -3.2384     1.8036 H       
  38 H38            0.5719    -4.0978     3.6875 H       
  39 H39            3.0196    -3.8698     3.5963 H       
  40 H40            4.6836    -3.7938    -0.6374 H       
  41 H41            7.1240    -3.5546    -0.4966 H       
  42 H42            4.1954     0.3702     0.1798 H       
  43 H43           10.0573    -0.8756     1.2640 H       
  44 H44            8.4748    -0.9685     2.0736 H       
  45 H45            7.5840    -1.5634    -2.4742 H       
  46 H46           10.3016    -0.6601    -3.5305 H       
  47 H47            9.7219    -2.3415    -3.4605 H       
  48 H48            9.3932    -1.3803    -5.7225 H       
  49 H49            7.8317    -1.7520    -4.9532 H       
  50 H50            9.1712     0.9897    -5.0280 H       
  51 H51            7.0334     1.7679    -4.0417 H       
  52 H52            6.4536     0.0865    -3.9717 H       
  53 H53            7.3620     0.8067    -1.7797 H       
  54 H54            8.9235     1.1784    -2.5490 H       
  55 H55            6.7012    -0.1022    -6.4507 H       
  56 H56            7.2810     1.5793    -6.5207 H       
  57 H57            8.2627     0.2695    -7.2200 H       
  58 H58            9.7657    -2.9557     2.6573 H       
  59 H59            8.4353    -3.4397     1.5784 H       
  60 H60           10.4551    -5.0820     1.9444 H       
  61 H61            9.6492    -5.3572    -0.9868 H       
  62 H62            9.7317    -6.6847     0.1960 H       
  63 H63            8.5366    -5.3818     0.4023 H       
  64 H64           12.6989    -4.6487     1.0602 H       
  65 H65           12.1325    -6.2302     0.4719 H       
  66 H66           12.1042    -4.8164    -0.6091 H       
  67 H67            6.4509     2.8928     0.7837 H       
@<TRIPOS>BOND
   1    1    2 ar
   2    1    6 ar
   3    1   37 1
   4    2    3 ar
   5    2   38 1
   6    3    4 ar
   7    3   39 1
   8    4    5 ar
   9    5    6 ar
  10    5    7 1
  11    6   30 1
  12    7    8 1
  13    8    9 ar
  14    8   13 ar
  15    9   10 ar
  16    9   40 1
  17   10   11 ar
  18   10   41 1
  19   11   12 ar
  20   11   14 1
  21   12   13 ar
  22   12   34 1
  23   13   42 1
  24   14   15 am
  25   14   16 1
  26   15   17 2
  27   15   18 1
  28   16   25 1
  29   16   43 1
  30   16   44 1
  31   18   19 1
  32   18   23 1
  33   18   45 1
  34   19   20 1
  35   19   46 1
  36   19   47 1
  37   20   21 1
  38   20   48 1
  39   20   49 1
  40   21   22 1
  41   21   24 1
  42   21   50 1
  43   22   23 1
  44   22   51 1
  45   22   52 1
  46   23   53 1
  47   23   54 1
  48   24   55 1
  49   24   56 1
  50   24   57 1
  51   25   26 1
  52   25   58 1
  53   25   59 1
  54   26   27 1
  55   27   28 1
  56   27   29 1
  57   27   60 1
  58   28   61 1
  59   28   62 1
  60   28   63 1
  61   29   64 1
  62   29   65 1
  63   29   66 1
  64   30   31 1
  65   30   32 1
  66   30   33 1
  67   34   35 2
  68   34   36 1
  69   36   67 1

#	End of record

