#	Name: ASD01940605
#	Creating user name:	WinNT
#	Creation time:	15. 06. 2019 20:12

#	Modifying user name:	WinNT
#	Modification time:	15. 06. 2019 20:12

#	Program:	/corina/corina34_cracker 3.40 0067  02.08.2006

@<TRIPOS>MOLECULE
ASD01940605
  51   53    0    0    0
SMALL
NO_CHARGES


@<TRIPOS>ATOM
   1 C1             0.2466     1.4362    -0.1257 C.ar    
   2 C2            -0.0645     0.0666    -0.1762 C.ar    
   3 C3             0.9603    -0.8474    -0.3733 C.ar    
   4 N4             2.2086    -0.4488    -0.5123 N.ar    
   5 C5             2.5495     0.8220    -0.4724 C.ar    
   6 C6             1.5932     1.8130    -0.2792 C.ar    
   7 N7             1.9614     3.1520    -0.2388 N.pl3   
   8 C8             3.2637     3.5087     0.1265 C.ar    
   9 C9            -0.8070     2.4476     0.0757 C.2     
  10 O10           -1.1082     2.7960     1.2011 O.2     
  11 N11           -1.4364     2.9860    -0.9876 N.am    
  12 O12           -1.3460    -0.3548    -0.0339 O.3     
  13 C13           -1.5761    -1.6932     0.0113 C.ar    
  14 C14            4.0369     2.6387     0.8837 C.ar    
  15 C15            5.3229     2.9932     1.2426 C.ar    
  16 C16            5.8416     4.2138     0.8494 C.ar    
  17 C17            5.0750     5.0842     0.0953 C.ar    
  18 C18            3.7892     4.7331    -0.2728 C.ar    
  19 I19            7.7923     4.7459     1.3976 I       
  20 F20            3.0423     5.5805    -1.0139 F       
  21 C21           -1.6319    -2.3467     1.2329 C.ar    
  22 C22           -1.8676    -3.7134     1.2755 C.ar    
  23 C23           -2.0468    -4.4227     0.0945 C.ar    
  24 C24           -1.9905    -3.7683    -1.1207 C.ar    
  25 C25           -1.7612    -2.4062    -1.1650 C.ar    
  26 N26           -1.9241    -4.3764     2.5064 N.am    
  27 C27           -2.4962    -3.7768     3.5692 C.2     
  28 C28           -2.6317    -4.5218     4.8721 C.3     
  29 O29           -2.9021    -2.6375     3.4770 O.2     
  30 C30           -1.2442    -4.9231     5.3768 C.3     
  31 C31           -3.3098    -3.6211     5.9065 C.3     
  32 H32            0.7314    -1.9021    -0.4132 H       
  33 H33            3.5866     1.0990    -0.5915 H       
  34 H34            1.3153     3.8396    -0.4640 H       
  35 H35           -1.1962     2.7080    -1.8853 H       
  36 H36           -2.1296     3.6514    -0.8551 H       
  37 H37            3.6331     1.6857     1.1920 H       
  38 H38            5.9242     2.3164     1.8316 H       
  39 H39            5.4827     6.0365    -0.2099 H       
  40 H40           -1.4919    -1.7930     2.1496 H       
  41 H41           -2.2299    -5.4866     0.1264 H       
  42 H42           -2.1301    -4.3215    -2.0377 H       
  43 H43           -1.7218    -1.8966    -2.1164 H       
  44 H44           -1.5515    -5.2676     2.5947 H       
  45 H45           -3.2351    -5.4164     4.7181 H       
  46 H46           -0.6408    -4.0286     5.5308 H       
  47 H47           -1.3422    -5.4620     6.3192 H       
  48 H48           -0.7612    -5.5648     4.6399 H       
  49 H49           -4.2983    -3.3352     5.5470 H       
  50 H50           -3.4078    -4.1600     6.8489 H       
  51 H51           -2.7064    -2.7265     6.0605 H       
@<TRIPOS>BOND
   1    1    2 ar
   2    1    6 ar
   3    1    9 1
   4    2    3 ar
   5    2   12 1
   6    3    4 ar
   7    3   32 1
   8    4    5 ar
   9    5    6 ar
  10    5   33 1
  11    6    7 1
  12    7    8 1
  13    7   34 1
  14    8   14 ar
  15    8   18 ar
  16    9   10 2
  17    9   11 am
  18   11   35 1
  19   11   36 1
  20   12   13 1
  21   13   21 ar
  22   13   25 ar
  23   14   15 ar
  24   14   37 1
  25   15   16 ar
  26   15   38 1
  27   16   17 ar
  28   16   19 1
  29   17   18 ar
  30   17   39 1
  31   18   20 1
  32   21   22 ar
  33   21   40 1
  34   22   23 ar
  35   22   26 1
  36   23   24 ar
  37   23   41 1
  38   24   25 ar
  39   24   42 1
  40   25   43 1
  41   26   27 am
  42   26   44 1
  43   27   28 1
  44   27   29 2
  45   28   30 1
  46   28   31 1
  47   28   45 1
  48   30   46 1
  49   30   47 1
  50   30   48 1
  51   31   49 1
  52   31   50 1
  53   31   51 1

#	End of record

