#	Name: ASD09116499
#	Creating user name:	WinNT
#	Creation time:	15. 06. 2019 21:21

#	Modifying user name:	WinNT
#	Modification time:	15. 06. 2019 21:21

#	Program:	/corina/corina34_cracker 3.40 0067  02.08.2006

@<TRIPOS>MOLECULE
ASD09116499
  77   83    0    0    0
SMALL
NO_CHARGES


@<TRIPOS>ATOM
   1 N1             0.0822     2.2851     0.3309 N.2     
   2 N2            -0.7774     3.3256     0.7186 N.pl3   
   3 C3             1.2999     2.7721     0.3376 C.2     
   4 N4             1.2536     4.0574     0.7071 N.2     
   5 C5             0.0066     4.4066     0.9406 C.2     
   6 N6            -0.4262     5.6562     1.3417 N.pl3   
   7 C7            -2.1658     3.2586     0.8487 C.ar    
   8 N8             2.4571     2.0640     0.0124 N.pl3   
   9 C9             3.6866     2.7252    -0.0494 C.ar    
  10 C10            4.8636     2.0307     0.2012 C.ar    
  11 C11            3.7345     4.0773    -0.3673 C.ar    
  12 C12            4.9565     4.7215    -0.4255 C.ar    
  13 C13            6.1158     4.0343    -0.1727 C.ar    
  14 C14            6.0782     2.6858     0.1393 C.ar    
  15 N15           -2.7962     4.0948     1.6600 N.ar    
  16 N16           -4.0710     4.0685     1.8234 N.ar    
  17 C17           -4.8343     3.1958     1.1854 C.ar    
  18 C18           -4.2588     2.2879     0.2919 C.ar    
  19 C19           -2.8911     2.3135     0.1188 C.ar    
  20 C20           -6.2965     3.1276     1.4126 C.ar    
  21 C21           -6.8807     1.8882     1.6787 C.ar    
  22 C22           -6.0073     0.6680     1.7830 C.3     
  23 C23           -5.5748     0.1735     0.4053 C.3     
  24 C24           -5.1351     1.3405    -0.4747 C.3     
  25 C25           -7.0852     4.2715     1.3602 C.ar    
  26 C26           -8.4493     4.1710     1.5537 C.ar    
  27 C27           -9.0271     2.9380     1.7965 C.ar    
  28 C28           -8.2444     1.7981     1.8579 C.ar    
  29 C29            5.0058     6.1956    -0.7703 C.3     
  30 C30            5.6028     6.3461    -2.1716 C.3     
  31 C31            7.1173     6.3792    -2.1146 C.3     
  32 C32            7.7579     5.0686    -1.7023 C.3     
  33 C33            7.4512     4.7465    -0.2381 C.3     
  34 N34            7.6256     6.7489    -3.4424 N.3     
  35 C35            7.3444     8.1604    -3.7397 C.3     
  36 C36            7.0676     5.8734    -4.4824 C.3     
  37 C37            7.6810     6.2388    -5.8362 C.3     
  38 N38            7.3999     7.6503    -6.1335 N.3     
  39 C39            7.9578     8.5258    -5.0934 C.3     
  40 C40            7.9082     8.0200    -7.4612 C.3     
  41 H41            0.2150     6.3716     1.4758 H       
  42 H42           -1.3712     5.8179     1.4891 H       
  43 H43            2.4083     1.1127    -0.1707 H       
  44 H44            4.8288     0.9790     0.4447 H       
  45 H45            2.8233     4.6211    -0.5678 H       
  46 H46            6.9944     2.1492     0.3372 H       
  47 H47           -2.3980     1.6233    -0.5497 H       
  48 H48           -5.1211     0.9128     2.3684 H       
  49 H49           -6.5599    -0.1238     2.2887 H       
  50 H50           -4.7443    -0.5233     0.5186 H       
  51 H51           -6.4105    -0.3397    -0.0704 H       
  52 H52           -6.0168     1.8746    -0.8287 H       
  53 H53           -4.5825     0.9550    -1.3316 H       
  54 H54           -6.6335     5.2338     1.1694 H       
  55 H55           -9.0658     5.0569     1.5158 H       
  56 H56          -10.0952     2.8643     1.9386 H       
  57 H57           -8.7020     0.8382     2.0470 H       
  58 H58            3.9974     6.6092    -0.7553 H       
  59 H59            5.6308     6.7202    -0.0476 H       
  60 H60            5.2859     5.5049    -2.7882 H       
  61 H61            5.2408     7.2724    -2.6176 H       
  62 H62            7.4198     7.1500    -1.4057 H       
  63 H63            7.3728     4.2676    -2.3334 H       
  64 H64            8.8374     5.1403    -1.8349 H       
  65 H65            7.4019     5.6706     0.3378 H       
  66 H66            8.2309     4.1007     0.1660 H       
  67 H67            6.2663     8.3169    -3.7748 H       
  68 H68            7.7783     8.7892    -2.9622 H       
  69 H69            7.2996     4.8349    -4.2465 H       
  70 H70            5.9863     6.0039    -4.5260 H       
  71 H71            8.7591     6.0824    -5.8010 H       
  72 H72            7.2471     5.6100    -6.6137 H       
  73 H73            7.7258     9.5644    -5.3293 H       
  74 H74            9.0391     8.3953    -5.0498 H       
  75 H75            7.4284     7.4009    -8.2193 H       
  76 H76            7.6868     9.0694    -7.6557 H       
  77 H77            8.9864     7.8640    -7.4938 H       
@<TRIPOS>BOND
   1    1    2 1
   2    1    3 2
   3    2    7 1
   4    2    5 1
   5    3    4 1
   6    3    8 1
   7    4    5 2
   8    5    6 1
   9    6   41 1
  10    6   42 1
  11    7   15 ar
  12    7   19 ar
  13    8    9 1
  14    8   43 1
  15    9   10 ar
  16    9   11 ar
  17   10   14 ar
  18   10   44 1
  19   11   12 ar
  20   11   45 1
  21   12   13 ar
  22   12   29 1
  23   13   14 ar
  24   13   33 1
  25   14   46 1
  26   15   16 ar
  27   16   17 ar
  28   17   18 ar
  29   17   20 1
  30   18   19 ar
  31   18   24 1
  32   19   47 1
  33   20   21 ar
  34   20   25 ar
  35   21   22 1
  36   21   28 ar
  37   22   23 1
  38   22   48 1
  39   22   49 1
  40   23   24 1
  41   23   50 1
  42   23   51 1
  43   24   52 1
  44   24   53 1
  45   25   26 ar
  46   25   54 1
  47   26   27 ar
  48   26   55 1
  49   27   28 ar
  50   27   56 1
  51   28   57 1
  52   29   30 1
  53   29   58 1
  54   29   59 1
  55   30   31 1
  56   30   60 1
  57   30   61 1
  58   31   32 1
  59   31   34 1
  60   31   62 1
  61   32   33 1
  62   32   63 1
  63   32   64 1
  64   33   65 1
  65   33   66 1
  66   34   35 1
  67   34   36 1
  68   35   39 1
  69   35   67 1
  70   35   68 1
  71   36   37 1
  72   36   69 1
  73   36   70 1
  74   37   38 1
  75   37   71 1
  76   37   72 1
  77   38   39 1
  78   38   40 1
  79   39   73 1
  80   39   74 1
  81   40   75 1
  82   40   76 1
  83   40   77 1

#	End of record

