#	Name: ASD01813439
#	Creating user name:	WinNT
#	Creation time:	15. 06. 2019 19:30

#	Modifying user name:	WinNT
#	Modification time:	15. 06. 2019 19:30

#	Program:	/corina/corina34_cracker 3.40 0067  02.08.2006

@<TRIPOS>MOLECULE
ASD01813439
  40   43    0    0    0
SMALL
NO_CHARGES


@<TRIPOS>ATOM
   1 C1            -0.0167     1.3820     0.0096 C.ar    
   2 C2             0.0021    -0.0041     0.0020 C.ar    
   3 C3             1.1959    -0.6932    -0.0127 C.ar    
   4 C4             2.4016     0.0019    -0.0200 C.ar    
   5 C5             2.3831     1.4075    -0.0128 C.ar    
   6 C6             1.1665     2.0939     0.0022 C.ar    
   7 N7             3.6010    -0.6771    -0.0337 N.pl3   
   8 C8             4.7870    -0.0549    -0.0404 C.2     
   9 C9             4.8957     1.3208    -0.0340 C.2     
  10 C10            3.6667     2.1313    -0.0207 C.2     
  11 O11            3.7091     3.3491    -0.0150 O.2     
  12 C12            6.2161     1.9660    -0.0412 C.2     
  13 O13            6.3092     3.3109    -0.0348 O.3     
  14 O14            7.2244     1.2870    -0.0529 O.2     
  15 C15            3.5775    -2.1419    -0.0409 C.3     
  16 C16            3.5572    -2.6371    -1.4640 C.ar    
  17 C17            4.7477    -2.8826    -2.1249 C.ar    
  18 C18            4.7360    -3.3360    -3.4279 C.ar    
  19 C19            3.5200    -3.5469    -4.0792 C.ar    
  20 C20            2.3228    -3.2974    -3.4069 C.ar    
  21 C21            2.3482    -2.8496    -2.1022 C.ar    
  22 C22            3.5001    -4.0323    -5.4758 C.2     
  23 F23            1.1476     3.4448     0.0091 F       
  24 S24            2.0518    -4.3452    -6.4288 S.3     
  25 C25            3.0592    -4.8306    -7.7912 C.2     
  26 C26            4.3403    -4.7191    -7.4244 C.2     
  27 N27            4.5503    -4.2918    -6.2007 N.2     
  28 H28           -0.9604     1.9071     0.0170 H       
  29 H29           -0.9295    -0.5505     0.0080 H       
  30 H30            1.1956    -1.7731    -0.0181 H       
  31 H31            5.6884    -0.6497    -0.0508 H       
  32 H32            7.1990     3.6894    -0.0400 H       
  33 H33            4.4660    -2.5220     0.4634 H       
  34 H34            2.6863    -2.4936     0.4789 H       
  35 H35            5.6881    -2.7186    -1.6199 H       
  36 H36            5.6659    -3.5269    -3.9428 H       
  37 H37            1.3784    -3.4587    -3.9054 H       
  38 H38            1.4224    -2.6564    -1.5807 H       
  39 H39            2.7033    -5.1614    -8.7557 H       
  40 H40            5.1519    -4.9621    -8.0942 H       
@<TRIPOS>BOND
   1    1    2 ar
   2    1    6 ar
   3    1   28 1
   4    2    3 ar
   5    2   29 1
   6    3    4 ar
   7    3   30 1
   8    4    5 ar
   9    4    7 1
  10    5    6 ar
  11    5   10 1
  12    6   23 1
  13    7    8 1
  14    7   15 1
  15    8    9 2
  16    8   31 1
  17    9   10 1
  18    9   12 1
  19   10   11 2
  20   12   13 1
  21   12   14 2
  22   13   32 1
  23   15   16 1
  24   15   33 1
  25   15   34 1
  26   16   17 ar
  27   16   21 ar
  28   17   18 ar
  29   17   35 1
  30   18   19 ar
  31   18   36 1
  32   19   20 ar
  33   19   22 1
  34   20   21 ar
  35   20   37 1
  36   21   38 1
  37   22   24 1
  38   22   27 2
  39   24   25 1
  40   25   26 2
  41   25   39 1
  42   26   27 1
  43   26   40 1

#	End of record

