#	Name: ASD03240603
#	Creating user name:	WinNT
#	Creation time:	15. 06. 2019 20:35

#	Modifying user name:	WinNT
#	Modification time:	15. 06. 2019 20:35

#	Program:	/corina/corina34_cracker 3.40 0067  02.08.2006

@<TRIPOS>MOLECULE
ASD03240603
  57   63    0    0    0
SMALL
NO_CHARGES


@<TRIPOS>ATOM
   1 C1            -0.0166     1.3754     0.0096 C.ar    
   2 C2             0.0021    -0.0041     0.0020 C.ar    
   3 N3             1.1422    -0.6683    -0.0053 N.ar    
   4 C4             2.3145    -0.0481    -0.0053 C.ar    
   5 C5             2.3702     1.3442    -0.0124 C.ar    
   6 C6             1.1860     2.0698     0.0018 C.ar    
   7 N7             3.4820    -0.8058     0.0230 N.pl3   
   8 C8             4.3587    -0.7191     1.1011 C.ar    
   9 C9             4.9947     0.4893     1.4050 C.ar    
  10 C10            4.7639     1.6837     0.5628 C.2     
  11 N11            3.5938     2.0277    -0.0512 N.pl3   
  12 C12            4.6040    -1.8385     1.8850 C.ar    
  13 C13            5.4629    -1.7528     2.9641 C.ar    
  14 C14            6.0838    -0.5547     3.2727 C.ar    
  15 C15            5.8550     0.5659     2.5000 C.ar    
  16 N16            5.6765     2.5936     0.2867 N.2     
  17 C17            5.1480     3.5406    -0.5057 C.2     
  18 C18            3.8225     3.2045    -0.7385 C.2     
  19 C19            2.8511     3.9539    -1.5568 C.ar    
  20 C20            2.7523     5.3426    -1.4334 C.ar    
  21 C21            2.0288     3.2796    -2.4637 C.ar    
  22 C22            1.1228     3.9871    -3.2256 C.ar    
  23 C23            1.0270     5.3614    -3.0941 C.ar    
  24 C24            1.8416     6.0366    -2.2020 C.ar    
  25 C25            5.8511     4.7261    -1.0336 C.2     
  26 C26            0.0347     6.1273    -3.9307 C.3     
  27 N27           -1.0441     5.2792    -4.4550 N.3     
  28 S28            5.5777     5.4494    -2.6134 S.3     
  29 C29           -0.4663     7.4191    -3.2636 C.3     
  30 C30           -0.3783     8.0765    -4.6510 C.3     
  31 C31            0.6886     7.0219    -4.9970 C.3     
  32 C32            6.7913     6.6814    -2.2942 C.2     
  33 C33            7.3142     6.4969    -1.0789 C.2     
  34 C34            6.7990     5.4265    -0.3769 C.2     
  35 H35           -0.9556     1.9091     0.0170 H       
  36 H36           -0.9306    -0.5486     0.0025 H       
  37 H37            1.2002     3.1497     0.0068 H       
  38 H38            3.6866    -1.4004    -0.7156 H       
  39 H39            4.1230    -2.7769     1.6514 H       
  40 H40            5.6506    -2.6262     3.5710 H       
  41 H41            6.7497    -0.4966     4.1211 H       
  42 H42            6.3406     1.4995     2.7430 H       
  43 H43            3.3874     5.8707    -0.7376 H       
  44 H44            2.1030     2.2072    -2.5679 H       
  45 H45            0.4867     3.4674    -3.9268 H       
  46 H46            1.7610     7.1092    -2.1044 H       
  47 H47           -0.6712     4.4567    -4.9051 H       
  48 H48           -1.6942     5.0286    -3.7252 H       
  49 H49           -1.4835     7.3457    -2.8789 H       
  50 H50            0.2326     7.8353    -2.5380 H       
  51 H51           -1.2915     7.9809    -5.2382 H       
  52 H52            0.0061     9.0962    -4.6273 H       
  53 H53            1.7038     7.3289    -4.7457 H       
  54 H54            0.6025     6.6300    -6.0105 H       
  55 H55            7.0720     7.4687    -2.9782 H       
  56 H56            8.0814     7.1404    -0.6741 H       
  57 H57            7.1332     5.1658     0.6165 H       
@<TRIPOS>BOND
   1    1    2 ar
   2    1    6 ar
   3    1   35 1
   4    2    3 ar
   5    2   36 1
   6    3    4 ar
   7    4    5 ar
   8    4    7 1
   9    5    6 ar
  10    5   11 1
  11    6   37 1
  12    7    8 1
  13    7   38 1
  14    8    9 ar
  15    8   12 ar
  16    9   10 1
  17    9   15 ar
  18   10   11 1
  19   10   16 2
  20   11   18 1
  21   12   13 ar
  22   12   39 1
  23   13   14 ar
  24   13   40 1
  25   14   15 ar
  26   14   41 1
  27   15   42 1
  28   16   17 1
  29   17   18 2
  30   17   25 1
  31   18   19 1
  32   19   20 ar
  33   19   21 ar
  34   20   24 ar
  35   20   43 1
  36   21   22 ar
  37   21   44 1
  38   22   23 ar
  39   22   45 1
  40   23   24 ar
  41   23   26 1
  42   24   46 1
  43   25   28 1
  44   25   34 2
  45   26   27 1
  46   26   29 1
  47   26   31 1
  48   27   47 1
  49   27   48 1
  50   28   32 1
  51   29   30 1
  52   29   49 1
  53   29   50 1
  54   30   31 1
  55   30   51 1
  56   30   52 1
  57   31   53 1
  58   31   54 1
  59   32   33 2
  60   32   55 1
  61   33   34 1
  62   33   56 1
  63   34   57 1

#	End of record

