#	Name: ASD03540601
#	Creating user name:	WinNT
#	Creation time:	15. 06. 2019 20:43

#	Modifying user name:	WinNT
#	Modification time:	15. 06. 2019 20:43

#	Program:	/corina/corina34_cracker 3.40 0067  02.08.2006

@<TRIPOS>MOLECULE
ASD03540601
  73   77    0    0    0
SMALL
NO_CHARGES


@<TRIPOS>ATOM
   1 S1            -1.2592     1.9297     0.2688 S.o2    
   2 N2            -0.5488     0.4230     0.0478 N.am    
   3 C3             0.7943     0.4482    -0.1199 C.2     
   4 N4             1.5665     1.5227    -0.1235 N.am    
   5 C5             1.2507     2.8591     0.0329 C.ar    
   6 C6            -0.0777     3.2538     0.2347 C.ar    
   7 C7             2.2363     3.8426    -0.0051 C.ar    
   8 C8             1.8964     5.1669     0.1537 C.ar    
   9 C9             0.5660     5.5440     0.3544 C.ar    
  10 C10           -0.4316     4.5579     0.3930 C.ar    
  11 C11            0.2131     6.9670     0.5240 C.2     
  12 O12           -0.9463     7.2892     0.6984 O.2     
  13 N13            1.1759     7.9093     0.4857 N.am    
  14 C14            0.8256     9.3218     0.6540 C.3     
  15 O15            1.3458    -0.6230    -0.2829 O.2     
  16 O16           -2.0886     2.1301    -0.8675 O.2     
  17 O17           -1.7776     1.9159     1.5918 O.2     
  18 C18            2.9917     1.2508    -0.3264 C.3     
  19 C19           -1.3226    -0.8209     0.0378 C.3     
  20 C20           -1.6613    -1.1904    -1.3834 C.ar    
  21 C21           -0.7991    -1.9913    -2.1110 C.ar    
  22 C22           -1.1032    -2.3332    -3.4125 C.ar    
  23 C23           -2.2839    -1.8697    -3.9948 C.ar    
  24 C24           -3.1496    -1.0625    -3.2551 C.ar    
  25 C25           -2.8359    -0.7320    -1.9529 C.ar    
  26 C26            2.0737    10.1622     0.5708 C.ar    
  27 C27            2.4961    10.6513    -0.6516 C.ar    
  28 C28            3.6399    11.4220    -0.7305 C.ar    
  29 C29            4.3648    11.7051     0.4179 C.ar    
  30 C30            3.9388    11.2132     1.6432 C.ar    
  31 C31            2.7913    10.4477     1.7176 C.ar    
  32 O32            5.4906    12.4626     0.3428 O.3     
  33 C33            6.1864    12.7138     1.5655 C.3     
  34 C34           -2.6160    -2.2318    -5.3892 C.2     
  35 N35           -2.9661    -1.2730    -6.2693 N.am    
  36 O36           -2.5733    -3.3943    -5.7419 O.2     
  37 C37           -3.1026     0.1250    -5.8383 C.3     
  38 C38           -2.2342     1.0064    -6.7414 C.3     
  39 C39           -2.6118     0.7598    -8.2039 C.3     
  40 C40           -2.3481    -0.7049    -8.5606 C.3     
  41 C41           -3.2124    -1.6049    -7.6793 C.3     
  42 H42            3.2687     3.5656    -0.1592 H       
  43 H43            2.6669     5.9231     0.1232 H       
  44 H44           -1.4652     4.8302     0.5475 H       
  45 H45            2.1008     7.6522     0.3466 H       
  46 H46            0.1331     9.6207    -0.1329 H       
  47 H47            0.3547     9.4659     1.6264 H       
  48 H48            3.1444     0.1775    -0.4390 H       
  49 H49            3.3349     1.7629    -1.2254 H       
  50 H50            3.5562     1.6099     0.5341 H       
  51 H51           -0.7336    -1.6188     0.4902 H       
  52 H52           -2.2423    -0.6813     0.6060 H       
  53 H53            0.1143    -2.3493    -1.6592 H       
  54 H54           -0.4289    -2.9579    -3.9796 H       
  55 H55           -4.0649    -0.7007    -3.6999 H       
  56 H56           -3.5067    -0.1105    -1.3782 H       
  57 H57            1.9317    10.4303    -1.5454 H       
  58 H58            3.9697    11.8034    -1.6856 H       
  59 H59            4.5014    11.4322     2.5387 H       
  60 H60            2.4592    10.0645     2.6712 H       
  61 H61            7.0638    13.3285     1.3646 H       
  62 H62            5.5269    13.2370     2.2579 H       
  63 H63            6.4991    11.7673     2.0065 H       
  64 H64           -4.1451     0.4326    -5.9207 H       
  65 H65           -2.7713     0.2227    -4.8045 H       
  66 H66           -2.4002     2.0551    -6.4947 H       
  67 H67           -1.1836     0.7585    -6.5902 H       
  68 H68           -3.6686     0.9843    -8.3489 H       
  69 H69           -2.0124     1.4038    -8.8473 H       
  70 H70           -2.5952    -0.8743    -9.6086 H       
  71 H71           -1.2964    -0.9367    -8.3922 H       
  72 H72           -2.9560    -2.6487    -7.8604 H       
  73 H73           -4.2649    -1.4397    -7.9094 H       
@<TRIPOS>BOND
   1    1    2 am
   2    1    6 1
   3    1   16 2
   4    1   17 2
   5    2    3 am
   6    2   19 1
   7    3    4 am
   8    3   15 2
   9    4    5 1
  10    4   18 1
  11    5    6 ar
  12    5    7 ar
  13    6   10 ar
  14    7    8 ar
  15    7   42 1
  16    8    9 ar
  17    8   43 1
  18    9   10 ar
  19    9   11 1
  20   10   44 1
  21   11   12 2
  22   11   13 am
  23   13   14 1
  24   13   45 1
  25   14   26 1
  26   14   46 1
  27   14   47 1
  28   18   48 1
  29   18   49 1
  30   18   50 1
  31   19   20 1
  32   19   51 1
  33   19   52 1
  34   20   21 ar
  35   20   25 ar
  36   21   22 ar
  37   21   53 1
  38   22   23 ar
  39   22   54 1
  40   23   24 ar
  41   23   34 1
  42   24   25 ar
  43   24   55 1
  44   25   56 1
  45   26   27 ar
  46   26   31 ar
  47   27   28 ar
  48   27   57 1
  49   28   29 ar
  50   28   58 1
  51   29   30 ar
  52   29   32 1
  53   30   31 ar
  54   30   59 1
  55   31   60 1
  56   32   33 1
  57   33   61 1
  58   33   62 1
  59   33   63 1
  60   34   35 am
  61   34   36 2
  62   35   37 1
  63   35   41 1
  64   37   38 1
  65   37   64 1
  66   37   65 1
  67   38   39 1
  68   38   66 1
  69   38   67 1
  70   39   40 1
  71   39   68 1
  72   39   69 1
  73   40   41 1
  74   40   70 1
  75   40   71 1
  76   41   72 1
  77   41   73 1

#	End of record

