#	Name: ASD01810349
#	Creating user name:	WinNT
#	Creation time:	15. 06. 2019 19:24

#	Modifying user name:	WinNT
#	Modification time:	15. 06. 2019 19:24

#	Program:	/corina/corina34_cracker 3.40 0067  02.08.2006

@<TRIPOS>MOLECULE
ASD01810349
  36   38    0    0    0
SMALL
NO_CHARGES


@<TRIPOS>ATOM
   1 C1            -0.0168     1.3843     0.0097 C.ar    
   2 C2             0.0021    -0.0041     0.0020 C.ar    
   3 C3             1.1955    -0.6913    -0.0126 C.ar    
   4 C4             2.3971     0.0125    -0.0204 C.ar    
   5 C5             2.3711     1.4186    -0.0131 C.ar    
   6 C6             1.1505     2.0949     0.0023 C.ar    
   7 N7             3.6055    -0.6449    -0.0345 N.pl3   
   8 C8             4.7839     0.0305    -0.0413 C.2     
   9 C9             4.8452     1.3810    -0.0346 C.2     
  10 C10            3.6515     2.1451    -0.0214 C.2     
  11 O11            3.6839     3.3652    -0.0156 O.2     
  12 C12            3.6217    -2.1098    -0.0420 C.3     
  13 C13            3.6144    -2.6050    -1.4653 C.ar    
  14 C14            4.8091    -2.8185    -2.1279 C.ar    
  15 C15            4.8052    -3.2723    -3.4326 C.ar    
  16 C16            3.6012    -3.5140    -4.0781 C.ar    
  17 C17            2.4038    -3.2990    -3.4111 C.ar    
  18 C18            2.4133    -2.8504    -2.1046 C.ar    
  19 O19            6.0542     2.0075    -0.0415 O.3     
  20 *20            7.1559     1.1277    -0.0555 Du      
  21 O21            3.5946    -3.9601    -5.3618 O.3     
  22 C22            2.3184    -4.1874    -5.9631 C.3     
  23 H23           -0.9618     1.9070     0.0170 H       
  24 H24           -0.9292    -0.5510     0.0080 H       
  25 H25            1.1994    -1.7713    -0.0178 H       
  26 H26            1.1285     3.1747     0.0080 H       
  27 H27            5.7058    -0.5320    -0.0521 H       
  28 H28            4.5202    -2.4658     0.4620 H       
  29 H29            2.7404    -2.4856     0.4779 H       
  30 H30            5.7461    -2.6299    -1.6250 H       
  31 H31            5.7386    -3.4386    -3.9498 H       
  32 H32            1.4653    -3.4864    -3.9115 H       
  33 H33            1.4814    -2.6829    -1.5849 H       
  34 H34            1.7750    -4.9382    -5.3894 H       
  35 H35            1.7508    -3.2570    -5.9735 H       
  36 H36            2.4560    -4.5405    -6.9851 H       
@<TRIPOS>BOND
   1    1    2 ar
   2    1    6 ar
   3    1   23 1
   4    2    3 ar
   5    2   24 1
   6    3    4 ar
   7    3   25 1
   8    4    5 ar
   9    4    7 1
  10    5    6 ar
  11    5   10 1
  12    6   26 1
  13    7    8 1
  14    7   12 1
  15    8    9 2
  16    8   27 1
  17    9   19 1
  18    9   10 1
  19   10   11 2
  20   12   13 1
  21   12   28 1
  22   12   29 1
  23   13   14 ar
  24   13   18 ar
  25   14   15 ar
  26   14   30 1
  27   15   16 ar
  28   15   31 1
  29   16   21 1
  30   16   17 ar
  31   17   18 ar
  32   17   32 1
  33   18   33 1
  34   19   20 1
  35   21   22 1
  36   22   34 1
  37   22   35 1
  38   22   36 1

#	End of record

