#	Name: ASD04590441
#	Creating user name:	WinNT
#	Creation time:	15. 06. 2019 20:50

#	Modifying user name:	WinNT
#	Modification time:	15. 06. 2019 20:50

#	Program:	/corina/corina34_cracker 3.40 0067  02.08.2006

@<TRIPOS>MOLECULE
ASD04590441
  50   54    0    0    0
SMALL
NO_CHARGES


@<TRIPOS>ATOM
   1 C1            -0.0159     1.3230     0.0093 C.ar    
   2 N2             0.0021    -0.0041     0.0020 N.ar    
   3 C3            -2.3373    -0.0231     0.0252 C.ar    
   4 C4            -2.3142     1.3867     0.0428 C.ar    
   5 N5            -1.1453     2.0128     0.0293 N.ar    
   6 N6            -3.6367    -0.4044     0.0442 N.2     
   7 C7            -4.4030     0.6589     0.0720 C.2     
   8 N8            -3.6263     1.7903     0.0721 N.pl3   
   9 C9            -5.8801     0.6417     0.0990 C.2     
  10 C10           -6.6982    -0.5117     0.0998 C.2     
  11 C11           -7.9900    -0.1021     0.1286 C.2     
  12 N12           -7.9958     1.2568     0.1455 N.pl3   
  13 N13           -6.6671     1.6992     0.1323 N.2     
  14 N14           -6.2522    -1.8431     0.0747 N.am    
  15 C15           -7.1447    -2.8530     0.0787 C.2     
  16 O16           -8.3363    -2.6113     0.1040 O.2     
  17 C17           -6.6762    -4.2516     0.0523 C.ar    
  18 C18           -1.1182    -0.7054     0.0094 C.ar    
  19 C19           -6.4754    -4.9034    -1.1693 C.ar    
  20 C20           -6.0358    -6.2137    -1.1848 C.ar    
  21 C21           -5.7945    -6.8805     0.0027 C.ar    
  22 C22           -5.9904    -6.2438     1.2148 C.ar    
  23 C23           -6.4246    -4.9320     1.2486 C.ar    
  24 F24           -6.6154    -4.3119     2.4337 F       
  25 F25           -6.7109    -4.2541    -2.3304 F       
  26 N26            1.1878     2.0092     0.0015 N.3     
  27 C27            0.9659     3.4624     0.0114 C.3     
  28 C28            2.3177     4.1793     0.0627 C.3     
  29 O29            3.1158     3.7610    -1.0478 O.3     
  30 C30            3.3523     2.3511    -1.0883 C.3     
  31 C31            2.0110     1.6158    -1.1512 C.3     
  32 C32           -1.0812    -2.2119     0.0004 C.3     
  33 H33           -3.9453     2.7061     0.0895 H       
  34 H34           -8.8600    -0.7420     0.1364 H       
  35 H35           -8.7837     1.8222     0.1667 H       
  36 H36           -5.3018    -2.0359     0.0544 H       
  37 H37           -5.8806    -6.7185    -2.1269 H       
  38 H38           -5.4515    -7.9044    -0.0166 H       
  39 H39           -5.7999    -6.7719     2.1374 H       
  40 H40            0.4326     3.7554    -0.8930 H       
  41 H41            0.3761     3.7346     0.8868 H       
  42 H42            2.1604     5.2567     0.0126 H       
  43 H43            2.8278     3.9281     0.9926 H       
  44 H44            3.9433     2.1064    -1.9709 H       
  45 H45            3.8925     2.0468    -0.1918 H       
  46 H46            2.1841     0.5399    -1.1246 H       
  47 H47            1.4944     1.8792    -2.0742 H       
  48 H48           -1.0619    -2.5809     1.0259 H       
  49 H49           -1.9672    -2.5940    -0.5066 H       
  50 H50           -0.1878    -2.5503    -0.5244 H       
@<TRIPOS>BOND
   1    1    2 ar
   2    1   26 1
   3    1    5 ar
   4    2   18 ar
   5    3    4 ar
   6    3    6 1
   7    3   18 ar
   8    4    5 ar
   9    4    8 1
  10    6    7 2
  11    7    8 1
  12    7    9 1
  13    8   33 1
  14    9   10 1
  15    9   13 2
  16   10   11 2
  17   10   14 1
  18   11   12 1
  19   11   34 1
  20   12   13 1
  21   12   35 1
  22   14   15 am
  23   14   36 1
  24   15   16 2
  25   15   17 1
  26   17   19 ar
  27   17   23 ar
  28   18   32 1
  29   19   20 ar
  30   19   25 1
  31   20   21 ar
  32   20   37 1
  33   21   22 ar
  34   21   38 1
  35   22   23 ar
  36   22   39 1
  37   23   24 1
  38   26   27 1
  39   26   31 1
  40   27   28 1
  41   27   40 1
  42   27   41 1
  43   28   29 1
  44   28   42 1
  45   28   43 1
  46   29   30 1
  47   30   31 1
  48   30   44 1
  49   30   45 1
  50   31   46 1
  51   31   47 1
  52   32   48 1
  53   32   49 1
  54   32   50 1

#	End of record

