#	Name: ASD00310133
#	Creating user name:	WinNT
#	Creation time:	15. 06. 2019 18:33

#	Modifying user name:	WinNT
#	Modification time:	15. 06. 2019 18:33

#	Program:	/corina/corina34_cracker 3.40 0067  02.08.2006

@<TRIPOS>MOLECULE
ASD00310133
  24   25    0    0    0
SMALL
NO_CHARGES


@<TRIPOS>ATOM
   1 N1            -0.0161     1.3345     0.0094 N.am    
   2 C2             0.0021    -0.0041     0.0020 C.2     
   3 C3             1.2821    -0.7906    -0.0557 C.3     
   4 O4             2.3865     0.0567     0.2702 O.3     
   5 C5             2.3861     1.2849    -0.4670 C.3     
   6 C6             1.2047     2.1370     0.0020 C.3     
   7 O7            -1.0514    -0.6035     0.0438 O.2     
   8 C8             3.6744     2.0254    -0.2166 C.ar    
   9 C9             4.2545     2.7652    -1.2302 C.ar    
  10 C10            5.4359     3.4450    -1.0008 C.ar    
  11 C11            6.0378     3.3849     0.2431 C.ar    
  12 C12            5.4571     2.6446     1.2570 C.ar    
  13 C13            4.2729     1.9694     1.0283 C.ar    
  14 Br14           7.6545     4.3142     0.5574 Br      
  15 H15           -0.8729     1.7891     0.0159 H       
  16 H16            1.2341    -1.6137     0.6572 H       
  17 H17            1.4166    -1.1905    -1.0608 H       
  18 H18            2.2845     1.0725    -1.5313 H       
  19 H19            1.0777     2.9829    -0.6735 H       
  20 H20            1.4015     2.5058     1.0087 H       
  21 H21            3.7846     2.8118    -2.2015 H       
  22 H22            5.8891     4.0226    -1.7928 H       
  23 H23            5.9269     2.5971     2.2283 H       
  24 H24            3.8173     1.3947     1.8210 H       
@<TRIPOS>BOND
   1    1    2 am
   2    1    6 1
   3    1   15 1
   4    2    3 1
   5    2    7 2
   6    3    4 1
   7    3   16 1
   8    3   17 1
   9    4    5 1
  10    5    6 1
  11    5    8 1
  12    5   18 1
  13    6   19 1
  14    6   20 1
  15    8    9 ar
  16    8   13 ar
  17    9   10 ar
  18    9   21 1
  19   10   11 ar
  20   10   22 1
  21   11   12 ar
  22   11   14 1
  23   12   13 ar
  24   12   23 1
  25   13   24 1

#	End of record

