#	Name: ASD01910597
#	Creating user name:	WinNT
#	Creation time:	15. 06. 2019 19:56

#	Modifying user name:	WinNT
#	Modification time:	15. 06. 2019 19:56

#	Program:	/corina/corina34_cracker 3.40 0067  02.08.2006

@<TRIPOS>MOLECULE
ASD01910597
  43   46    0    0    0
SMALL
NO_CHARGES


@<TRIPOS>ATOM
   1 C1            -0.6643     1.7784    -1.9684 C.ar    
   2 N2            -0.7324     0.4877    -1.7064 N.ar    
   3 C3             0.2647    -0.1655    -1.1422 C.ar    
   4 C4             1.4334     0.4838    -0.7988 C.ar    
   5 C5             1.5497     1.8537    -1.0585 C.ar    
   6 C6             0.4673     2.5059    -1.6587 C.ar    
   7 C7             2.7830     2.5922    -0.7076 C.2     
   8 N8             3.0139     3.8778    -0.9003 N.2     
   9 C9             4.2520     4.0955    -0.4302 C.2     
  10 N10            4.7083     2.9626     0.0163 N.2     
  11 O11            3.8816     2.0867    -0.1266 O.3     
  12 C12            4.9813     5.4142    -0.4213 C.3     
  13 C13            5.3246     5.7984     1.0198 C.3     
  14 C14            6.0363     7.1532     1.0326 C.3     
  15 C15            7.3408     7.0478     0.2365 C.3     
  16 N16            7.0348     6.5397    -1.1077 N.am    
  17 C17            6.2739     5.2891    -1.2339 C.3     
  18 C18            7.4442     7.2080    -2.2041 C.2     
  19 C19            8.1350     8.5062    -2.0628 C.ar    
  20 O20            7.2450     6.7426    -3.3094 O.2     
  21 C21            9.2202     8.6311    -1.1934 C.ar    
  22 C22            9.8622     9.8445    -1.0644 C.ar    
  23 C23            9.4324    10.9404    -1.7954 C.ar    
  24 C24            8.3533    10.8231    -2.6617 C.ar    
  25 C25            7.7083     9.6111    -2.8029 C.ar    
  26 F26           10.0649    12.1270    -1.6647 F       
  27 F27            7.9383    11.8951    -3.3716 F       
  28 H28           -1.5035     2.2720    -2.4357 H       
  29 H29            0.1653    -1.2228    -0.9457 H       
  30 H30            2.2457    -0.0573    -0.3363 H       
  31 H31            0.5162     3.5626    -1.8764 H       
  32 H32            4.3472     6.1837    -0.8617 H       
  33 H33            4.4081     5.8641     1.6062 H       
  34 H34            5.9784     5.0407     1.4517 H       
  35 H35            5.3927     7.9066     0.5783 H       
  36 H36            6.2596     7.4371     2.0610 H       
  37 H37            7.8020     8.0324     0.1587 H       
  38 H38            8.0218     6.3618     0.7402 H       
  39 H39            6.8680     4.4597    -0.8501 H       
  40 H40            6.0312     5.1133    -2.2819 H       
  41 H41            9.5562     7.7783    -0.6222 H       
  42 H42           10.7017     9.9412    -0.3918 H       
  43 H43            6.8693     9.5198    -3.4768 H       
@<TRIPOS>BOND
   1    1    2 ar
   2    1    6 ar
   3    1   28 1
   4    2    3 ar
   5    3    4 ar
   6    3   29 1
   7    4    5 ar
   8    4   30 1
   9    5    6 ar
  10    5    7 1
  11    6   31 1
  12    7    8 2
  13    7   11 1
  14    8    9 1
  15    9   10 2
  16    9   12 1
  17   10   11 1
  18   12   13 1
  19   12   17 1
  20   12   32 1
  21   13   14 1
  22   13   33 1
  23   13   34 1
  24   14   15 1
  25   14   35 1
  26   14   36 1
  27   15   16 1
  28   15   37 1
  29   15   38 1
  30   16   17 1
  31   16   18 am
  32   17   39 1
  33   17   40 1
  34   18   19 1
  35   18   20 2
  36   19   21 ar
  37   19   25 ar
  38   21   22 ar
  39   21   41 1
  40   22   23 ar
  41   22   42 1
  42   23   24 ar
  43   23   26 1
  44   24   25 ar
  45   24   27 1
  46   25   43 1

#	End of record

