#	Name: ASD01148358
#	Creating user name:	WinNT
#	Creation time:	15. 06. 2019 19:02

#	Modifying user name:	WinNT
#	Modification time:	15. 06. 2019 19:02

#	Program:	/corina/corina34_cracker 3.40 0067  02.08.2006

@<TRIPOS>MOLECULE
ASD01148358
  49   52    0    0    0
SMALL
NO_CHARGES


@<TRIPOS>ATOM
   1 C1            -0.4099     1.8309    -0.0440 C.ar    
   2 C2            -0.4709     0.4505     0.0160 C.ar    
   3 C3             0.6963    -0.2906     0.0952 C.ar    
   4 C4             1.9216     0.3505     0.1143 C.ar    
   5 C5             1.9807     1.7304     0.0543 C.ar    
   6 C6             0.8157     2.4701    -0.0248 C.ar    
   7 C7             3.3161     2.4285     0.0752 C.3     
   8 O8             4.3314     1.6193    -0.5523 O.3     
   9 C9             3.3017     3.6788    -0.8364 C.3     
  10 C10            3.8438     3.1382    -2.1459 C.2     
  11 N11            4.3962     1.9948    -1.9139 N.2     
  12 C12            3.7545     3.8049    -3.4599 C.ar    
  13 C13            4.2988     3.1932    -4.5922 C.ar    
  14 C14            3.1209     5.0448    -3.5725 C.ar    
  15 C15            3.0378     5.6665    -4.7981 C.ar    
  16 C16            3.5865     5.0574    -5.9288 C.ar    
  17 C17            4.2156     3.8150    -5.8173 C.ar    
  18 C18            3.4964     5.7245    -7.2446 C.2     
  19 O19            4.0686     5.2507    -8.2068 O.2     
  20 N20            2.7797     6.8582    -7.3777 N.am    
  21 C21            4.8080     3.1581    -7.0374 C.3     
  22 C22            3.7159     2.7971     1.5053 C.3     
  23 F23            3.7877     1.6365     2.2832 F       
  24 F24            4.9645     3.4279     1.4926 F       
  25 F25            2.7610     3.6637     2.0478 F       
  26 Cl26           0.6214    -2.0234     0.1711 Cl      
  27 Cl27          -2.0098    -0.3527    -0.0076 Cl      
  28 C28            2.6903     7.5194    -8.6819 C.3     
  29 C29            1.8373     8.7559    -8.5608 C.2     
  30 C30            2.3519     9.9718    -8.3541 C.2     
  31 S31            1.0173    11.1195    -8.2769 S.3     
  32 C32           -0.1000     9.8503    -8.5303 C.2     
  33 N33            0.5232     8.7275    -8.6557 N.2     
  34 H34           -1.3196     2.4092    -0.1103 H       
  35 H35            2.8322    -0.2269     0.1765 H       
  36 H36            0.8630     3.5480    -0.0716 H       
  37 H37            2.2860     4.0535    -0.9633 H       
  38 H38            3.9549     4.4554    -0.4384 H       
  39 H39            4.7851     2.2327    -4.5060 H       
  40 H40            2.6960     5.5155    -2.6982 H       
  41 H41            2.5479     6.6251    -4.8852 H       
  42 H42            2.3231     7.2363    -6.6099 H       
  43 H43            5.8044     3.5610    -7.2193 H       
  44 H44            4.8752     2.0825    -6.8745 H       
  45 H45            4.1730     3.3558    -7.9009 H       
  46 H46            3.6893     7.7985    -9.0170 H       
  47 H47            2.2418     6.8380    -9.4048 H       
  48 H48            3.4006    10.2090    -8.2523 H       
  49 H49           -1.1719     9.9715    -8.5825 H       
@<TRIPOS>BOND
   1    1    2 ar
   2    1    6 ar
   3    1   34 1
   4    2    3 ar
   5    2   27 1
   6    3    4 ar
   7    3   26 1
   8    4    5 ar
   9    4   35 1
  10    5    6 ar
  11    5    7 1
  12    6   36 1
  13    7    8 1
  14    7    9 1
  15    7   22 1
  16    8   11 1
  17    9   10 1
  18    9   37 1
  19    9   38 1
  20   10   11 2
  21   10   12 1
  22   12   13 ar
  23   12   14 ar
  24   13   17 ar
  25   13   39 1
  26   14   15 ar
  27   14   40 1
  28   15   16 ar
  29   15   41 1
  30   16   17 ar
  31   16   18 1
  32   17   21 1
  33   18   19 2
  34   18   20 am
  35   20   28 1
  36   20   42 1
  37   21   43 1
  38   21   44 1
  39   21   45 1
  40   22   23 1
  41   22   24 1
  42   22   25 1
  43   28   29 1
  44   28   46 1
  45   28   47 1
  46   29   30 2
  47   29   33 1
  48   30   31 1
  49   30   48 1
  50   31   32 1
  51   32   33 2
  52   32   49 1

#	End of record

