#	Name: ASD01918224
#	Creating user name:	WinNT
#	Creation time:	15. 06. 2019 20:11

#	Modifying user name:	WinNT
#	Modification time:	15. 06. 2019 20:11

#	Program:	/corina/corina34_cracker 3.40 0067  02.08.2006

@<TRIPOS>MOLECULE
ASD01918224
  44   45    0    0    0
SMALL
NO_CHARGES


@<TRIPOS>ATOM
   1 C1            -0.1313     1.4045    -0.0850 C.ar    
   2 C2            -0.1294     0.0232    -0.1128 C.ar    
   3 C3             1.0698    -0.6694    -0.1679 C.ar    
   4 C4             2.2715     0.0161    -0.1957 C.ar    
   5 C5             2.2842     1.3947    -0.1689 C.ar    
   6 C6             1.0793     2.1015    -0.1129 C.ar    
   7 C7             1.0859     3.5332    -0.0848 C.1     
   8 C8             1.0913     4.7069    -0.0618 C.1     
   9 C9             1.0978     6.1387    -0.0337 C.ar    
  10 N10           -0.0519     8.1811     0.0525 N.ar    
  11 C11           -0.1026     6.8642     0.0279 C.ar    
  12 C12            2.3052     6.8549    -0.0612 C.ar    
  13 N13            2.2666     8.1721    -0.0333 N.ar    
  14 C14            1.1102     8.8195     0.0198 C.ar    
  15 C15            1.1170    10.3017     0.0489 C.2     
  16 N16            2.2854    10.9688     0.1269 N.am    
  17 O17            0.0691    10.9151     0.0023 O.2     
  18 C18            3.5388    10.2322     0.3077 C.3     
  19 C19            2.3021    12.4306     0.0311 C.3     
  20 C20            1.5594    13.0287     1.2275 C.3     
  21 C21            3.7500    12.9251     0.0305 C.3     
  22 C22            1.6145    12.8646    -1.2650 C.3     
  23 F23           -1.2984    -0.6535    -0.0859 F       
  24 C24            4.0627     9.7750    -1.0552 C.3     
  25 H25           -1.0661     1.9441    -0.0462 H       
  26 H26            1.0663    -1.7492    -0.1887 H       
  27 H27            3.2021    -0.5303    -0.2383 H       
  28 H28            3.2234     1.9275    -0.1904 H       
  29 H29           -1.0527     6.3513     0.0545 H       
  30 H30            3.2506     6.3347    -0.1041 H       
  31 H31            4.2760    10.8803     0.7816 H       
  32 H32            3.3609     9.3618     0.9392 H       
  33 H33            2.0988    12.7930     2.1449 H       
  34 H34            1.4952    14.1106     1.1115 H       
  35 H35            0.5549    12.6086     1.2786 H       
  36 H36            4.2792    12.4991    -0.8218 H       
  37 H37            3.7625    14.0127    -0.0408 H       
  38 H38            4.2399    12.6160     0.9539 H       
  39 H39            0.6117    12.4393    -1.3042 H       
  40 H40            1.5493    13.9522    -1.2951 H       
  41 H41            2.1926    12.5114    -2.1189 H       
  42 H42            3.3255     9.1269    -1.5291 H       
  43 H43            4.2407    10.6455    -1.6867 H       
  44 H44            4.9953     9.2270    -0.9207 H       
@<TRIPOS>BOND
   1    1    2 ar
   2    1    6 ar
   3    1   25 1
   4    2    3 ar
   5    2   23 1
   6    3    4 ar
   7    3   26 1
   8    4    5 ar
   9    4   27 1
  10    5    6 ar
  11    5   28 1
  12    6    7 1
  13    7    8 3
  14    8    9 1
  15    9   12 ar
  16    9   11 ar
  17   10   11 ar
  18   10   14 ar
  19   11   29 1
  20   12   13 ar
  21   12   30 1
  22   13   14 ar
  23   14   15 1
  24   15   16 am
  25   15   17 2
  26   16   18 1
  27   16   19 1
  28   18   24 1
  29   18   31 1
  30   18   32 1
  31   19   20 1
  32   19   21 1
  33   19   22 1
  34   20   33 1
  35   20   34 1
  36   20   35 1
  37   21   36 1
  38   21   37 1
  39   21   38 1
  40   22   39 1
  41   22   40 1
  42   22   41 1
  43   24   42 1
  44   24   43 1
  45   24   44 1

#	End of record

