#	Name: ASD01913950
#	Creating user name:	WinNT
#	Creation time:	15. 06. 2019 20:02

#	Modifying user name:	WinNT
#	Modification time:	15. 06. 2019 20:02

#	Program:	/corina/corina34_cracker 3.40 0067  02.08.2006

@<TRIPOS>MOLECULE
ASD01913950
  38   41    0    0    0
SMALL
NO_CHARGES


@<TRIPOS>ATOM
   1 C1             0.7005    -1.6238    -3.7855 C.ar    
   2 C2             0.4540    -1.9474    -2.4614 C.ar    
   3 C3             1.4820    -1.8913    -1.5341 C.ar    
   4 C4             2.7474    -1.5119    -1.9413 C.ar    
   5 C5             3.0093    -1.2007    -3.2872 C.ar    
   6 C6             1.9662    -1.2535    -4.1982 C.ar    
   7 F7            -0.7867    -2.3165    -2.0746 F       
   8 C8             3.8872    -1.3814    -1.0034 C.2     
   9 C9             5.0635    -0.7192    -1.4554 C.2     
  10 C10            5.1527    -0.1581    -2.8457 C.3     
  11 O11            4.2610    -0.8826    -3.6978 O.3     
  12 N12            4.0908    -1.7517     0.2214 N.2     
  13 N13            5.2721    -1.4036     0.6108 N.pl3   
  14 C14            5.9275    -0.7511    -0.4045 C.2     
  15 C15            7.2907    -0.1983    -0.3643 C.2     
  16 N16            8.2894    -0.9080     0.1974 N.am    
  17 C17            9.6024    -0.4302     0.1441 C.ar    
  18 C18           10.6611    -1.3185     0.0098 C.ar    
  19 C19           11.9579    -0.8426    -0.0430 C.ar    
  20 C20           12.2008     0.5173     0.0379 C.ar    
  21 C21           11.1479     1.4037     0.1722 C.ar    
  22 C22            9.8500     0.9348     0.2197 C.ar    
  23 Cl23          13.2828    -1.9519    -0.2104 Cl      
  24 O24            7.5161     0.8991    -0.8379 O.2     
  25 C25            5.8306    -1.6663     1.9394 C.3     
  26 H26           -0.1045    -1.6658    -4.5042 H       
  27 H27            1.2960    -2.1420    -0.5002 H       
  28 H28            2.1433    -1.0047    -5.2341 H       
  29 H29            4.8701     0.8946    -2.8331 H       
  30 H30            6.1732    -0.2590    -3.2151 H       
  31 H31            8.0973    -1.7503     0.6385 H       
  32 H32           10.4716    -2.3799    -0.0530 H       
  33 H33           13.2147     0.8871    -0.0035 H       
  34 H34           11.3408     2.4645     0.2358 H       
  35 H35            9.0284     1.6279     0.3247 H       
  36 H36            6.3737    -2.6112     1.9248 H       
  37 H37            6.5112    -0.8602     2.2133 H       
  38 H38            5.0224    -1.7230     2.6686 H       
@<TRIPOS>BOND
   1    1    2 ar
   2    1    6 ar
   3    1   26 1
   4    2    3 ar
   5    2    7 1
   6    3    4 ar
   7    3   27 1
   8    4    5 ar
   9    4    8 1
  10    5    6 ar
  11    5   11 1
  12    6   28 1
  13    8    9 1
  14    8   12 2
  15    9   10 1
  16    9   14 2
  17   10   11 1
  18   10   29 1
  19   10   30 1
  20   12   13 1
  21   13   14 1
  22   13   25 1
  23   14   15 1
  24   15   16 am
  25   15   24 2
  26   16   17 1
  27   16   31 1
  28   17   18 ar
  29   17   22 ar
  30   18   19 ar
  31   18   32 1
  32   19   20 ar
  33   19   23 1
  34   20   21 ar
  35   20   33 1
  36   21   22 ar
  37   21   34 1
  38   22   35 1
  39   25   36 1
  40   25   37 1
  41   25   38 1

#	End of record

