#	Name: ASD02508292
#	Creating user name:	WinNT
#	Creation time:	15. 06. 2019 20:24

#	Modifying user name:	WinNT
#	Modification time:	15. 06. 2019 20:24

#	Program:	/corina/corina34_cracker 3.40 0067  02.08.2006

@<TRIPOS>MOLECULE
ASD02508292
  25   26    0    0    0
SMALL
NO_CHARGES


@<TRIPOS>ATOM
   1 O1             0.0021    -0.0041     0.0020 O.2     
   2 C2            -0.0144     1.2117     0.0087 C.2     
   3 C3             1.2445     1.9616     0.0007 C.2     
   4 N4             1.3751     3.2533     0.0068 N.2     
   5 O5            -1.1915     1.8702     0.0179 O.3     
   6 C6             2.6419     1.3779    -0.0097 C.3     
   7 C7             3.5408     2.5987    -0.0147 C.2     
   8 N8             2.7065     3.6582    -0.0038 N.am    
   9 O9             4.7530     2.6184    -0.0231 O.2     
  10 C10            3.1259     4.9939    -0.0041 C.ar    
  11 C11            2.1876     6.0180     0.0076 C.ar    
  12 C12            4.4809     5.2977    -0.0103 C.ar    
  13 C13            4.8914     6.6166    -0.0101 C.ar    
  14 C14            3.9549     7.6337    -0.0033 C.ar    
  15 C15            2.6046     7.3344     0.0077 C.ar    
  16 N16            1.6053     8.4264     0.0150 N.pl3   
  17 O17            1.9724     9.5878     0.0113 O.2     
  18 O18            0.4161     8.1636     0.0247 O.2     
  19 H19           -1.9953     1.3325     0.0188 H       
  20 H20            2.8138     0.7792     0.8848 H       
  21 H21            2.8012     0.7811    -0.9078 H       
  22 H22            1.1331     5.7850     0.0162 H       
  23 H23            5.2130     4.5037    -0.0150 H       
  24 H24            5.9451     6.8536    -0.0150 H       
  25 H25            4.2784     8.6641    -0.0025 H       
@<TRIPOS>BOND
   1    1    2 2
   2    2    3 1
   3    2    5 1
   4    3    4 2
   5    3    6 1
   6    4    8 1
   7    5   19 1
   8    6    7 1
   9    6   20 1
  10    6   21 1
  11    7    8 am
  12    7    9 2
  13    8   10 1
  14   10   11 ar
  15   10   12 ar
  16   11   15 ar
  17   11   22 1
  18   12   13 ar
  19   12   23 1
  20   13   14 ar
  21   13   24 1
  22   14   15 ar
  23   14   25 1
  24   15   16 1
  25   16   17 2
  26   16   18 2

#	End of record

