#	Name: ASD01815952
#	Creating user name:	WinNT
#	Creation time:	15. 06. 2019 19:34

#	Modifying user name:	WinNT
#	Modification time:	15. 06. 2019 19:34

#	Program:	/corina/corina34_cracker 3.40 0067  02.08.2006

@<TRIPOS>MOLECULE
ASD01815952
  52   57    0    0    0
SMALL
NO_CHARGES


@<TRIPOS>ATOM
   1 C1             1.1845     2.2598    -0.5289 C.ar    
   2 C2             0.8010     0.9288    -0.5125 C.ar    
   3 C3             1.7396    -0.0723    -0.3554 C.ar    
   4 C4             3.0864     0.2503    -0.2119 C.ar    
   5 C5             3.4723     1.6003    -0.2294 C.ar    
   6 C6             2.5162     2.6013    -0.3881 C.ar    
   7 N7             4.0322    -0.7491    -0.0535 N.pl3   
   8 C8             5.3433    -0.4984     0.0896 C.2     
   9 C9             5.8377     0.7823     0.0881 C.2     
  10 C10            4.9041     1.9199    -0.0758 C.2     
  11 C11            7.1588     1.3895     0.2161 C.2     
  12 N12            6.9695     2.7240     0.1311 N.am    
  13 N13            5.6134     3.0115    -0.0430 N.2     
  14 C14            7.9876     3.6829     0.2063 C.ar    
  15 O15            8.2207     0.8082     0.3697 O.2     
  16 C16            3.5814    -2.1429    -0.0411 C.3     
  17 C17            3.4352    -2.6362    -1.4576 C.ar    
  18 C18            4.5172    -2.5904    -2.3207 C.ar    
  19 C19            4.3847    -3.0433    -3.6214 C.ar    
  20 C20            3.1663    -3.5433    -4.0593 C.ar    
  21 C21            2.0837    -3.5875    -3.1904 C.ar    
  22 C22            2.2225    -3.1391    -1.8916 C.ar    
  23 F23            2.8893     3.8997    -0.4047 F       
  24 F24            1.3502    -1.3659    -0.3405 F       
  25 C25            8.7045     4.0276    -0.9317 C.ar    
  26 C26            9.7080     4.9736    -0.8545 C.ar    
  27 C27           10.0000     5.5782     0.3545 C.ar    
  28 C28            9.2891     5.2387     1.4908 C.ar    
  29 C29            8.2791     4.2964     1.4200 C.ar    
  30 F30            7.5843     3.9645     2.5301 F       
  31 F31            5.7023    -2.1029    -1.8928 F       
  32 N32            3.0286    -4.0024    -5.3761 N.pl3   
  33 C33            1.9168    -4.5110    -5.9404 C.2     
  34 N34            2.1946    -4.8220    -7.1812 N.2     
  35 C35            3.4714    -4.5275    -7.4465 C.2     
  36 N36            4.0211    -4.0173    -6.3695 N.2     
  37 N37            4.1130    -4.7255    -8.6697 N.pl3   
  38 H38            0.4411     3.0327    -0.6566 H       
  39 H39           -0.2420     0.6714    -0.6232 H       
  40 H40            6.0269    -1.3259     0.2093 H       
  41 H41            4.3134    -2.7569     0.4837 H       
  42 H42            2.6198    -2.2093     0.4678 H       
  43 H43            5.2282    -3.0074    -4.2950 H       
  44 H44            1.1348    -3.9762    -3.5292 H       
  45 H45            1.3804    -3.1736    -1.2163 H       
  46 H46            8.4779     3.5560    -1.8765 H       
  47 H47           10.2657     5.2412    -1.7398 H       
  48 H48           10.7855     6.3173     0.4113 H       
  49 H49            9.5199     5.7125     2.4334 H       
  50 H50            0.9616    -4.6405    -5.4535 H       
  51 H51            3.6258    -5.1068    -9.4168 H       
  52 H52            5.0462    -4.4819    -8.7729 H       
@<TRIPOS>BOND
   1    1    2 ar
   2    1    6 ar
   3    1   38 1
   4    2    3 ar
   5    2   39 1
   6    3    4 ar
   7    3   24 1
   8    4    5 ar
   9    4    7 1
  10    5    6 ar
  11    5   10 1
  12    6   23 1
  13    7    8 1
  14    7   16 1
  15    8    9 2
  16    8   40 1
  17    9   10 1
  18    9   11 1
  19   10   13 2
  20   11   12 am
  21   11   15 2
  22   12   13 1
  23   12   14 1
  24   14   25 ar
  25   14   29 ar
  26   16   17 1
  27   16   41 1
  28   16   42 1
  29   17   18 ar
  30   17   22 ar
  31   18   19 ar
  32   18   31 1
  33   19   20 ar
  34   19   43 1
  35   20   21 ar
  36   20   32 1
  37   21   22 ar
  38   21   44 1
  39   22   45 1
  40   25   26 ar
  41   25   46 1
  42   26   27 ar
  43   26   47 1
  44   27   28 ar
  45   27   48 1
  46   28   29 ar
  47   28   49 1
  48   29   30 1
  49   32   33 1
  50   32   36 1
  51   33   34 2
  52   33   50 1
  53   34   35 1
  54   35   36 2
  55   35   37 1
  56   37   51 1
  57   37   52 1

#	End of record

