#	Name: ASD04550031
#	Creating user name:	WinNT
#	Creation time:	15. 06. 2019 20:49

#	Modifying user name:	WinNT
#	Modification time:	15. 06. 2019 20:49

#	Program:	/corina/corina34_cracker 3.40 0067  02.08.2006

@<TRIPOS>MOLECULE
ASD04550031
  29   30    0    0    0
SMALL
NO_CHARGES


@<TRIPOS>ATOM
   1 C1            -0.0070     1.3763    -0.0180 C.ar    
   2 C2             0.0218    -0.0110     0.1390 C.ar    
   3 C3            -1.1561    -0.7287     0.1196 C.ar    
   4 C4            -2.3642    -0.0771    -0.0549 C.ar    
   5 C5            -2.4001     1.2976    -0.2115 C.ar    
   6 C6            -1.2307     2.0282    -0.1879 C.ar    
   7 C7            -3.7206     1.9984    -0.4015 C.3     
   8 C8            -4.4051     1.4638    -1.6611 C.3     
   9 C9             1.2509     2.1519     0.0017 C.2     
  10 C10            2.4247     1.6311     0.7182 C.2     
  11 O11            1.3153     3.2211    -0.5748 O.2     
  12 N12            3.6188     2.1622     0.7072 N.2     
  13 C13            4.5257     1.5419     1.4133 C.2     
  14 C14            4.1105     0.4385     2.0583 C.2     
  15 S15            2.4481     0.1946     1.7365 S.3     
  16 C16           -4.6009     1.7441     0.7950 C.2     
  17 O17           -4.1974     1.0637     1.7082 O.2     
  18 O18           -5.8333     2.2736     0.8461 O.3     
  19 H19            0.9641    -0.5209     0.2749 H       
  20 H20           -1.1353    -1.8017     0.2405 H       
  21 H21           -3.2834    -0.6439    -0.0693 H       
  22 H22           -1.2601     3.1009    -0.3099 H       
  23 H23           -3.5514     3.0700    -0.5069 H       
  24 H24           -4.5743     0.3922    -1.5557 H       
  25 H25           -5.3603     1.9707    -1.7985 H       
  26 H26           -3.7684     1.6477    -2.5265 H       
  27 H27            5.5451     1.8934     1.4747 H       
  28 H28            4.7266    -0.1912     2.6829 H       
  29 H29           -6.3608     2.0827     1.6337 H       
@<TRIPOS>BOND
   1    1    2 ar
   2    1    9 1
   3    1    6 ar
   4    2    3 ar
   5    2   19 1
   6    3    4 ar
   7    3   20 1
   8    4    5 ar
   9    4   21 1
  10    5    6 ar
  11    5    7 1
  12    6   22 1
  13    7    8 1
  14    7   16 1
  15    7   23 1
  16    8   24 1
  17    8   25 1
  18    8   26 1
  19    9   10 1
  20    9   11 2
  21   10   12 2
  22   10   15 1
  23   12   13 1
  24   13   14 2
  25   13   27 1
  26   14   15 1
  27   14   28 1
  28   16   17 2
  29   16   18 1
  30   18   29 1

#	End of record

