#	Name: ASD01410969
#	Creating user name:	WinNT
#	Creation time:	15. 06. 2019 19:19

#	Modifying user name:	WinNT
#	Modification time:	15. 06. 2019 19:19

#	Program:	/corina/corina34_cracker 3.40 0067  02.08.2006

@<TRIPOS>MOLECULE
ASD01410969
  60   63    0    0    0
SMALL
NO_CHARGES


@<TRIPOS>ATOM
   1 C1             0.3684     1.8450    -0.3361 C.ar    
   2 P2             0.2251     0.0476    -0.5345 P.3     
   3 N3             0.1631    -0.6622     0.9426 N.pl3   
   4 O4            -1.0099    -0.2688    -1.2861 O.2     
   5 C5             0.1503    -2.0503     1.0479 C.2     
   6 C6             0.2074    -2.7071     2.2555 C.2     
   7 S7             0.1688    -4.4438     1.9846 S.3     
   8 C8             0.0769    -4.2105     0.2448 C.2     
   9 C9             0.0737    -2.8802    -0.0464 C.2     
  10 C10            0.2850    -2.0820     3.5190 C.2     
  11 O11            0.3059    -0.8672     3.5970 O.2     
  12 O12            0.3361    -2.8315     4.6410 O.3     
  13 C13            0.0075    -5.2975    -0.7541 C.ar    
  14 C14           -0.0931    -6.6262    -0.3381 C.ar    
  15 C15           -0.1575    -7.6363    -1.2751 C.ar    
  16 C16           -0.1221    -7.3345    -2.6262 C.ar    
  17 C17           -0.0220    -6.0183    -3.0450 C.ar    
  18 C18            0.0364    -4.9991    -2.1176 C.ar    
  19 O19            1.5023    -0.5066    -1.3430 O.3     
  20 C20            1.8316    -0.0785    -2.6660 C.3     
  21 Cl21          -0.2031    -8.6113    -3.7996 Cl      
  22 C22           -0.7620     2.6391    -0.3926 C.ar    
  23 C23           -0.6528     4.0086    -0.2415 C.ar    
  24 C24            0.5868     4.5844    -0.0333 C.ar    
  25 C25            1.7168     3.7905     0.0241 C.ar    
  26 C26            1.6070     2.4202    -0.1227 C.ar    
  27 C27            2.8383     1.5540    -0.0548 C.3     
  28 C28            0.7060     6.0777     0.1305 C.3     
  29 C29            3.0977    -0.7984    -3.1347 C.3     
  30 C30            3.4450    -0.3469    -4.5298 C.ar    
  31 C31            4.2741     0.7435    -4.7166 C.ar    
  32 C32            4.5937     1.1581    -5.9956 C.ar    
  33 C33            4.0832     0.4811    -7.0902 C.ar    
  34 C34            3.2529    -0.6108    -6.9019 C.ar    
  35 C35            2.9389    -1.0269    -5.6219 C.ar    
  36 F36            4.3945     0.8858    -8.3409 F       
  37 H37            0.1352    -0.1148     1.7430 H       
  38 H38            0.0190    -2.5060    -1.0580 H       
  39 H39            0.3878    -2.3151     5.4569 H       
  40 H40           -0.1200    -6.8628     0.7153 H       
  41 H41           -0.2353    -8.6647    -0.9544 H       
  42 H42            0.0054    -5.7891    -4.1001 H       
  43 H43            0.1092    -3.9727    -2.4454 H       
  44 H44            1.0084    -0.3153    -3.3400 H       
  45 H45            2.0041     0.9978    -2.6672 H       
  46 H46           -1.7303     2.1893    -0.5552 H       
  47 H47           -1.5357     4.6289    -0.2864 H       
  48 H48            2.6851     4.2404     0.1864 H       
  49 H49            3.2044     1.3632    -1.0636 H       
  50 H50            3.6102     2.0643     0.5213 H       
  51 H51            2.5911     0.6081     0.4270 H       
  52 H52            0.6115     6.3363     1.1851 H       
  53 H53            1.6772     6.4074    -0.2387 H       
  54 H54           -0.0843     6.5697    -0.4365 H       
  55 H55            3.9209    -0.5616    -2.4606 H       
  56 H56            2.9252    -1.8747    -3.1334 H       
  57 H57            4.6720     1.2716    -3.8627 H       
  58 H58            5.2411     2.0102    -6.1413 H       
  59 H59            2.8540    -1.1397    -7.7549 H       
  60 H60            2.2946    -1.8811    -5.4748 H       
@<TRIPOS>BOND
   1    1    2 1
   2    1   22 ar
   3    1   26 ar
   4    2    3 1
   5    2    4 2
   6    2   19 1
   7    3    5 1
   8    3   37 1
   9    5    6 2
  10    5    9 1
  11    6    7 1
  12    6   10 1
  13    7    8 1
  14    8    9 2
  15    8   13 1
  16    9   38 1
  17   10   11 2
  18   10   12 1
  19   12   39 1
  20   13   14 ar
  21   13   18 ar
  22   14   15 ar
  23   14   40 1
  24   15   16 ar
  25   15   41 1
  26   16   17 ar
  27   16   21 1
  28   17   18 ar
  29   17   42 1
  30   18   43 1
  31   19   20 1
  32   20   29 1
  33   20   44 1
  34   20   45 1
  35   22   23 ar
  36   22   46 1
  37   23   24 ar
  38   23   47 1
  39   24   25 ar
  40   24   28 1
  41   25   26 ar
  42   25   48 1
  43   26   27 1
  44   27   49 1
  45   27   50 1
  46   27   51 1
  47   28   52 1
  48   28   53 1
  49   28   54 1
  50   29   30 1
  51   29   55 1
  52   29   56 1
  53   30   31 ar
  54   30   35 ar
  55   31   32 ar
  56   31   57 1
  57   32   33 ar
  58   32   58 1
  59   33   34 ar
  60   33   36 1
  61   34   35 ar
  62   34   59 1
  63   35   60 1

#	End of record

