#	Name: ASD00310156
#	Creating user name:	WinNT
#	Creation time:	15. 06. 2019 18:33

#	Modifying user name:	WinNT
#	Modification time:	15. 06. 2019 18:33

#	Program:	/corina/corina34_cracker 3.40 0067  02.08.2006

@<TRIPOS>MOLECULE
ASD00310156
  46   49    0    0    0
SMALL
NO_CHARGES


@<TRIPOS>ATOM
   1 N1            -0.0153     1.2794     0.0091 N.pl3   
   2 N2             0.0021    -0.0041     0.0020 N.2     
   3 C3             1.2286    -0.4800    -0.0122 C.2     
   4 C4             2.1240     0.6851    -0.0145 C.ar    
   5 C5             3.5012     0.8754    -0.0267 C.ar    
   6 C6             4.0089     2.1675    -0.0246 C.ar    
   7 C7             3.1380     3.2647    -0.0104 C.ar    
   8 C8             1.7851     3.0817     0.0016 C.ar    
   9 C9             1.2550     1.7944    -0.0003 C.ar    
  10 C10            1.6255    -1.8993    -0.0232 C.2     
  11 O11            2.8035    -2.2012    -0.0357 O.2     
  12 N12            0.6829    -2.8626    -0.0195 N.am    
  13 S13            1.1289    -4.4574    -0.0318 S.o2    
  14 O14           -0.0751    -5.2110     0.0102 O.2     
  15 O15            2.0966    -4.5954    -1.0631 O.2     
  16 C16            1.9684    -4.7759     1.4842 C.ar    
  17 C17            1.2576    -5.1957     2.5930 C.ar    
  18 C18            1.9163    -5.4456     3.7824 C.ar    
  19 C19            3.2858    -5.2761     3.8628 C.ar    
  20 C20            3.9968    -4.8572     2.7538 C.ar    
  21 C21            3.3387    -4.6115     1.5632 C.ar    
  22 C22            5.4762     2.3867    -0.0369 C.ar    
  23 C23            6.0437     3.2616    -0.9617 C.ar    
  24 C24            7.4079     3.4637    -0.9704 C.ar    
  25 C25            8.2157     2.7968    -0.0593 C.ar    
  26 C26            7.6533     1.9248     0.8629 C.ar    
  27 C27            6.2892     1.7227     0.8800 C.ar    
  28 O28            9.5596     2.9976    -0.0706 O.3     
  29 C29           10.3310     2.2794     0.8943 C.3     
  30 Cl30           3.7863     4.8751    -0.0073 Cl      
  31 H31           -0.8235     1.8158     0.0160 H       
  32 H32            4.1692     0.0268    -0.0372 H       
  33 H33            1.1253     3.9367     0.0125 H       
  34 H34           -0.2567    -2.6218    -0.0095 H       
  35 H35            0.1876    -5.3282     2.5301 H       
  36 H36            1.3608    -5.7729     4.6488 H       
  37 H37            3.8003    -5.4707     4.7923 H       
  38 H38            5.0667    -4.7244     2.8168 H       
  39 H39            3.8946    -4.2877     0.6958 H       
  40 H40            5.4159     3.7804    -1.6709 H       
  41 H41            7.8483     4.1412    -1.6869 H       
  42 H42            8.2842     1.4074     1.5705 H       
  43 H43            5.8518     1.0473     1.6004 H       
  44 H44           10.0026     2.5514     1.8974 H       
  45 H45           10.1936     1.2084     0.7450 H       
  46 H46           11.3851     2.5304     0.7765 H       
@<TRIPOS>BOND
   1    1    2 1
   2    1    9 1
   3    1   31 1
   4    2    3 2
   5    3    4 1
   6    3   10 1
   7    4    5 ar
   8    4    9 ar
   9    5    6 ar
  10    5   32 1
  11    6    7 ar
  12    6   22 1
  13    7    8 ar
  14    7   30 1
  15    8    9 ar
  16    8   33 1
  17   10   11 2
  18   10   12 am
  19   12   13 am
  20   12   34 1
  21   13   14 2
  22   13   15 2
  23   13   16 1
  24   16   17 ar
  25   16   21 ar
  26   17   18 ar
  27   17   35 1
  28   18   19 ar
  29   18   36 1
  30   19   20 ar
  31   19   37 1
  32   20   21 ar
  33   20   38 1
  34   21   39 1
  35   22   23 ar
  36   22   27 ar
  37   23   24 ar
  38   23   40 1
  39   24   25 ar
  40   24   41 1
  41   25   26 ar
  42   25   28 1
  43   26   27 ar
  44   26   42 1
  45   27   43 1
  46   28   29 1
  47   29   44 1
  48   29   45 1
  49   29   46 1

#	End of record

