#	Name: ASD08390051
#	Creating user name:	WinNT
#	Creation time:	15. 06. 2019 21:19

#	Modifying user name:	WinNT
#	Modification time:	15. 06. 2019 21:19

#	Program:	/corina/corina34_cracker 3.40 0067  02.08.2006

@<TRIPOS>MOLECULE
ASD08390051
  35   36    0    0    0
SMALL
NO_CHARGES


@<TRIPOS>ATOM
   1 O1             0.2371     1.2929    -0.6908 O.3     
   2 O2             1.6768    -1.8377     3.0202 O.3     
   3 O3             0.0931    -4.5768    -2.0261 O.2     
   4 O4             0.0036   -12.8304    -0.7951 O.3     
   5 O5             1.0533    -3.8151     2.2257 O.2     
   6 N6            -0.2722    -4.1551     0.1251 N.am    
   7 C7            -0.1424    -2.7831    -0.0770 C.ar    
   8 C8             0.5300    -1.9929     0.8674 C.ar    
   9 C9            -0.6732    -2.1935    -1.2167 C.ar    
  10 C10            0.6548    -0.6173     0.6543 C.ar    
  11 C11            0.1161    -0.0455    -0.4829 C.ar    
  12 C12           -0.5445    -0.8345    -1.4175 C.ar    
  13 C13            0.0565    -8.7556    -1.4597 C.ar    
  14 C14           -0.0887    -5.0079    -0.9023 C.2     
  15 C15            0.0759    -7.3050    -1.6962 C.2     
  16 C16           -0.1079    -6.4507    -0.6671 C.2     
  17 C17            0.2469    -9.6435    -2.5250 C.ar    
  18 C18           -0.1465    -9.2538    -0.1674 C.ar    
  19 C19            1.1012    -2.6099     2.0777 C.2     
  20 C20            0.2283   -11.0011    -2.2981 C.ar    
  21 C21           -0.1633   -10.6133     0.0488 C.ar    
  22 C22            0.0210   -11.4909    -1.0136 C.ar    
  23 H23           -1.1875    -2.7999    -1.9476 H       
  24 H24            1.1707    -0.0024     1.3769 H       
  25 H25           -0.4946    -4.4968     1.0052 H       
  26 H26           -0.9590    -0.3814    -2.3059 H       
  27 H27            0.2372    -6.9226    -2.6933 H       
  28 H28           -0.2692    -6.8332     0.3300 H       
  29 H29            0.4077    -9.2641    -3.5233 H       
  30 H30           -0.2894    -8.5729     0.6586 H       
  31 H31            0.3747   -11.6870    -3.1193 H       
  32 H32           -0.3196   -10.9987     1.0455 H       
  33 H33            1.0328     1.5447    -1.1793 H       
  34 H34            2.0374    -2.2877     3.7964 H       
  35 H35            0.8698   -13.2062    -0.5864 H       
@<TRIPOS>BOND
   1    1   11 1
   2    1   33 1
   3    2   19 1
   4    2   34 1
   5    3   14 2
   6    4   22 1
   7    4   35 1
   8    5   19 2
   9    6    7 1
  10    6   14 am
  11    6   25 1
  12    7    8 ar
  13    7    9 ar
  14    8   10 ar
  15    8   19 1
  16    9   12 ar
  17    9   23 1
  18   10   11 ar
  19   10   24 1
  20   11   12 ar
  21   12   26 1
  22   13   15 1
  23   13   17 ar
  24   13   18 ar
  25   14   16 1
  26   15   16 2
  27   15   27 1
  28   16   28 1
  29   17   20 ar
  30   17   29 1
  31   18   21 ar
  32   18   30 1
  33   20   22 ar
  34   20   31 1
  35   21   22 ar
  36   21   32 1

#	End of record

