#	Name: ASD01121010
#	Creating user name:	WinNT
#	Creation time:	15. 06. 2019 18:59

#	Modifying user name:	WinNT
#	Modification time:	15. 06. 2019 18:59

#	Program:	/corina/corina34_cracker 3.40 0067  02.08.2006

@<TRIPOS>MOLECULE
ASD01121010
  53   54    0    0    0
SMALL
NO_CHARGES


@<TRIPOS>ATOM
   1 C1             0.0694     0.9688    -0.0330 C.ar    
   2 C2             1.0361     1.9692    -0.0128 C.ar    
   3 C3             0.4705    -0.3588    -0.0614 C.ar    
   4 O4             0.6798     3.2788     0.0156 O.3     
   5 C5             2.3768     1.5960    -0.0218 C.ar    
   6 N6             1.7563    -0.6779    -0.0688 N.ar    
   7 C7             2.7035     0.2486    -0.0505 C.ar    
   8 N8             4.0435    -0.1356    -0.0597 N.am    
   9 C9             4.3711    -1.4402     0.0235 C.2     
  10 O10            3.5050    -2.2741     0.2042 O.2     
  11 N11            5.6588    -1.8205    -0.0935 N.am    
  12 S12            6.0613    -3.4236     0.0087 S.o2    
  13 C13            5.3244    -4.2354    -1.3706 C.2     
  14 O14            7.4669    -3.4976    -0.1861 O.2     
  15 O15            5.4094    -3.9279     1.1663 O.2     
  16 S16            3.7171    -4.9494    -1.3870 S.3     
  17 C17            5.8979    -4.3974    -2.5640 C.2     
  18 C18            3.9236    -5.4494    -3.0605 C.2     
  19 C19            5.1254    -5.0685    -3.4961 C.2     
  20 C20            2.8977    -6.1905    -3.8788 C.3     
  21 C21            5.6065    -5.3491    -4.8965 C.3     
  22 C22            3.1036    -7.6973    -3.7116 C.3     
  23 O23            2.1309    -8.4000    -4.4875 O.3     
  24 C24            2.2358    -9.8225    -4.4012 C.3     
  25 H25            4.7401     0.5361    -0.1261 H       
  26 H26            6.3498    -1.1552    -0.2377 H       
  27 N27           -0.4903    -1.3686    -0.0819 N.am    
  28 C28           -0.1127    -2.6553    -0.2172 C.2     
  29 N29           -1.0443    -3.6217    -0.3392 N.am    
  30 O30            1.0681    -2.9443    -0.2292 O.2     
  31 C31           -0.6339    -5.0203    -0.4863 C.3     
  32 C32           -0.7191     3.5706     0.0234 C.3     
  33 H33           -0.9803     1.2226    -0.0223 H       
  34 H34            3.1533     2.3466    -0.0070 H       
  35 H35            6.8898    -4.0323    -2.7861 H       
  36 H36            1.8979    -5.9205    -3.5388 H       
  37 H37            3.0088    -5.9229    -4.9296 H       
  38 H38            5.3248    -4.5232    -5.5497 H       
  39 H39            6.6912    -5.4563    -4.8934 H       
  40 H40            5.1513    -6.2707    -5.2592 H       
  41 H41            4.1035    -7.9673    -4.0515 H       
  42 H42            2.9926    -7.9648    -2.6608 H       
  43 H43            2.1067   -10.1341    -3.3647 H       
  44 H44            1.4631   -10.2819    -5.0176 H       
  45 H45            3.2176   -10.1365    -4.7554 H       
  46 H46           -1.4306    -1.1453     0.0013 H       
  47 H47           -1.9864    -3.3912    -0.3296 H       
  48 H48           -0.0537    -5.3224     0.3857 H       
  49 H49           -1.5184    -5.6516    -0.5706 H       
  50 H50           -0.0240    -5.1276    -1.3834 H       
  51 H51           -1.1787     3.1229     0.9046 H       
  52 H52           -0.8648     4.6506     0.0467 H       
  53 H53           -1.1807     3.1609    -0.8750 H       
@<TRIPOS>BOND
   1    1    2 ar
   2    1    3 ar
   3    1   33 1
   4    2    4 1
   5    2    5 ar
   6    3    6 ar
   7    3   27 1
   8    4   32 1
   9    5    7 ar
  10    5   34 1
  11    6    7 ar
  12    7    8 1
  13    8   25 1
  14    8    9 am
  15    9   10 2
  16    9   11 am
  17   11   26 1
  18   11   12 am
  19   12   13 1
  20   12   15 2
  21   12   14 2
  22   13   16 1
  23   13   17 2
  24   16   18 1
  25   17   19 1
  26   17   35 1
  27   18   19 2
  28   18   20 1
  29   19   21 1
  30   20   22 1
  31   20   36 1
  32   20   37 1
  33   21   38 1
  34   21   39 1
  35   21   40 1
  36   22   23 1
  37   22   41 1
  38   22   42 1
  39   23   24 1
  40   24   43 1
  41   24   44 1
  42   24   45 1
  43   27   28 am
  44   27   46 1
  45   28   29 am
  46   28   30 2
  47   29   31 1
  48   29   47 1
  49   31   48 1
  50   31   49 1
  51   31   50 1
  52   32   51 1
  53   32   52 1
  54   32   53 1

#	End of record

