#	Name: ASD01915286
#	Creating user name:	WinNT
#	Creation time:	15. 06. 2019 20:05

#	Modifying user name:	WinNT
#	Modification time:	15. 06. 2019 20:05

#	Program:	/corina/corina34_cracker 3.40 0067  02.08.2006

@<TRIPOS>MOLECULE
ASD01915286
  47   49    0    0    0
SMALL
NO_CHARGES


@<TRIPOS>ATOM
   1 C1             0.1973     1.1190     0.0645 C.2     
   2 C2             0.2215    -0.3765     0.2486 C.3     
   3 N3             1.3513     1.8151     0.0508 N.am    
   4 O4            -0.8604     1.6956    -0.0764 O.2     
   5 O5            -1.1154    -0.8808     0.2276 O.3     
   6 C6            -1.2051    -2.2971     0.3950 C.3     
   7 C7            -2.6520    -2.7168     0.3569 C.ar    
   8 C8            -3.2423    -3.0541    -0.8467 C.ar    
   9 C9            -4.5695    -3.4391    -0.8817 C.ar    
  10 C10           -5.3063    -3.4871     0.2870 C.ar    
  11 C11           -4.7157    -3.1506     1.4907 C.ar    
  12 C12           -3.3873    -2.7698     1.5262 C.ar    
  13 C13            1.3502     3.2750    -0.1276 C.3     
  14 C14            2.1897     3.9026     0.9903 C.3     
  15 N15            3.5201     3.2799     1.0077 N.3     
  16 C16            3.4336     1.8467     1.3182 C.3     
  17 C17            2.6448     1.1356     0.2199 C.3     
  18 C18            4.3639     3.9326     1.8988 C.ar    
  19 N19            4.0874     3.9198     3.1935 N.ar    
  20 C20            4.8622     4.5269     4.0726 C.ar    
  21 C21            5.9965     5.2019     3.6694 C.ar    
  22 C22            6.3223     5.2393     2.3198 C.ar    
  23 C23            5.4947     4.5889     1.4228 C.ar    
  24 C24            5.8069     4.6009    -0.0515 C.3     
  25 F25            6.9990     5.2998    -0.2700 F       
  26 F26            5.9465     3.2863    -0.5093 F       
  27 F27            4.7652     5.2276    -0.7436 F       
  28 H28            0.7946    -0.8327    -0.5585 H       
  29 H29            0.6857    -0.6174     1.2050 H       
  30 H30           -0.6616    -2.7931    -0.4091 H       
  31 H31           -0.7705    -2.5778     1.3544 H       
  32 H32           -2.6667    -3.0166    -1.7597 H       
  33 H33           -5.0309    -3.7020    -1.8221 H       
  34 H34           -6.3434    -3.7872     0.2595 H       
  35 H35           -5.2914    -3.1878     2.4037 H       
  36 H36           -2.9259    -2.5070     2.4667 H       
  37 H37            1.7836     3.5259    -1.0958 H       
  38 H38            0.3282     3.6499    -0.0725 H       
  39 H39            2.2914     4.9730     0.8116 H       
  40 H40            1.6988     3.7386     1.9496 H       
  41 H41            4.4375     1.4262     1.3773 H       
  42 H42            2.9254     1.7114     2.2729 H       
  43 H43            2.4798     0.0958     0.5022 H       
  44 H44            3.2001     1.1799    -0.7170 H       
  45 H45            4.6052     4.4953     5.1211 H       
  46 H46            6.6243     5.6964     4.3960 H       
  47 H47            7.2043     5.7612     1.9790 H       
@<TRIPOS>BOND
   1    1    2 1
   2    1    3 am
   3    1    4 2
   4    2    5 1
   5    2   28 1
   6    2   29 1
   7    3   13 1
   8    3   17 1
   9    5    6 1
  10    6    7 1
  11    6   30 1
  12    6   31 1
  13    7    8 ar
  14    7   12 ar
  15    8    9 ar
  16    8   32 1
  17    9   10 ar
  18    9   33 1
  19   10   11 ar
  20   10   34 1
  21   11   12 ar
  22   11   35 1
  23   12   36 1
  24   13   14 1
  25   13   37 1
  26   13   38 1
  27   14   15 1
  28   14   39 1
  29   14   40 1
  30   15   16 1
  31   15   18 1
  32   16   17 1
  33   16   41 1
  34   16   42 1
  35   17   43 1
  36   17   44 1
  37   18   19 ar
  38   18   23 ar
  39   19   20 ar
  40   20   21 ar
  41   20   45 1
  42   21   22 ar
  43   21   46 1
  44   22   23 ar
  45   22   47 1
  46   23   24 1
  47   24   25 1
  48   24   26 1
  49   24   27 1

#	End of record

