#	Name: ASD01914346
#	Creating user name:	WinNT
#	Creation time:	15. 06. 2019 20:03

#	Modifying user name:	WinNT
#	Modification time:	15. 06. 2019 20:03

#	Program:	/corina/corina34_cracker 3.40 0067  02.08.2006

@<TRIPOS>MOLECULE
ASD01914346
  45   48    0    0    0
SMALL
NO_CHARGES


@<TRIPOS>ATOM
   1 C1             0.0478     1.2300    -0.2681 C.2     
   2 N2             0.0119    -0.1321    -0.2633 N.pl3   
   3 C3            -1.2089    -0.9363    -0.1620 C.3     
   4 C4            -2.3406    -0.0670     0.3969 C.3     
   5 N5            -2.3509     1.2265    -0.3027 N.am    
   6 C6            -1.1765     2.1062    -0.1512 C.3     
   7 C7            -3.0625     4.0595    -0.9000 C.ar    
   8 C8            -3.4441     2.9485    -1.6547 C.ar    
   9 C9            -3.4025     1.5974    -1.0597 C.2     
  10 C10           -3.1041     5.3184    -1.4613 C.ar    
  11 C11           -3.5229     5.4840    -2.7702 C.ar    
  12 C12           -3.8665     3.1216    -2.9767 C.ar    
  13 C13            1.3360     1.6107    -0.3865 C.2     
  14 C14            2.1203     0.4487    -0.4514 C.2     
  15 N15            1.3264    -0.5914    -0.3754 N.2     
  16 C16            3.6206     0.4043    -0.5863 C.3     
  17 O17            4.2157     0.3970     0.7128 O.3     
  18 C18            5.5730     0.3583     0.7695 C.ar    
  19 C19            6.2171     0.3490     1.9982 C.ar    
  20 C20            7.5969     0.3091     2.0531 C.ar    
  21 C21            8.3358     0.2784     0.8849 C.ar    
  22 C22            6.3165     0.3221    -0.4011 C.ar    
  23 O23           -4.3169     0.8198    -1.2527 O.2     
  24 C24            7.6962     0.2880    -0.3409 C.ar    
  25 C25           -3.9028     4.3903    -3.5256 C.ar    
  26 O26            1.7937     2.8928    -0.4350 O.3     
  27 F27           -4.2382     2.0529    -3.7149 F       
  28 H28           -1.4859    -1.3037    -1.1501 H       
  29 H29           -1.0345    -1.7803     0.5054 H       
  30 H30           -3.2953    -0.5706     0.2448 H       
  31 H31           -2.1810     0.0970     1.4626 H       
  32 H32           -1.1968     2.5889     0.8259 H       
  33 H33           -1.1716     2.8593    -0.9392 H       
  34 H34           -2.7395     3.9337     0.1228 H       
  35 H35           -2.8089     6.1779    -0.8778 H       
  36 H36           -3.5534     6.4729    -3.2035 H       
  37 H37            3.9105    -0.4985    -1.1238 H       
  38 H38            3.9619     1.2806    -1.1374 H       
  39 H39            5.6404     0.3734     2.9110 H       
  40 H40            8.0988     0.3023     3.0094 H       
  41 H41            9.4144     0.2472     0.9300 H       
  42 H42            5.8173     0.3247    -1.3588 H       
  43 H43            8.2757     0.2643    -1.2520 H       
  44 H44           -4.2288     4.5270    -4.5461 H       
  45 H45            2.0053     3.2679     0.4308 H       
@<TRIPOS>BOND
   1    1    2 1
   2    1   13 2
   3    1    6 1
   4    2    3 1
   5    2   15 1
   6    3    4 1
   7    3   28 1
   8    3   29 1
   9    4    5 1
  10    4   30 1
  11    4   31 1
  12    5    6 1
  13    5    9 am
  14    6   32 1
  15    6   33 1
  16    7    8 ar
  17    7   10 ar
  18    7   34 1
  19    8    9 1
  20    8   12 ar
  21    9   23 2
  22   10   11 ar
  23   10   35 1
  24   11   25 ar
  25   11   36 1
  26   12   27 1
  27   12   25 ar
  28   13   14 1
  29   13   26 1
  30   14   15 2
  31   14   16 1
  32   16   17 1
  33   16   37 1
  34   16   38 1
  35   17   18 1
  36   18   19 ar
  37   18   22 ar
  38   19   20 ar
  39   19   39 1
  40   20   21 ar
  41   20   40 1
  42   21   24 ar
  43   21   41 1
  44   22   24 ar
  45   22   42 1
  46   24   43 1
  47   25   44 1
  48   26   45 1

#	End of record

