#	Name: ASD01410759
#	Creating user name:	WinNT
#	Creation time:	15. 06. 2019 19:18

#	Modifying user name:	WinNT
#	Modification time:	15. 06. 2019 19:18

#	Program:	/corina/corina34_cracker 3.40 0067  02.08.2006

@<TRIPOS>MOLECULE
ASD01410759
  81   86    0    0    0
SMALL
NO_CHARGES


@<TRIPOS>ATOM
   1 C1             0.3866    -0.4646    -0.3730 C.3     
   2 C2             0.1098    -1.9633    -0.1177 C.3     
   3 N3            -0.1645    -2.0244     1.3279 N.am    
   4 C4            -0.9505    -0.8231     1.6508 C.3     
   5 C5            -0.6115     0.2345     0.5814 C.3     
   6 O6             1.7332    -0.1326    -0.0292 O.3     
   7 C7            -2.4224    -1.1442     1.6090 C.2     
   8 O8            -2.7905    -2.2672     1.3363 O.2     
   9 N9            -3.3295    -0.1835     1.8746 N.am    
  10 C10           -4.7594    -0.4647     1.7249 C.3     
  11 C11           -5.2234    -0.7426     0.3183 C.2     
  12 N12           -4.6216    -0.1335    -0.7225 N.am    
  13 O13           -6.1383    -1.5143     0.1229 O.2     
  14 S14           -5.2086    -0.3430    -2.2567 S.o2    
  15 C15           -6.8531     0.4217    -2.2206 C.3     
  16 C16           -5.4535    -1.2202     2.8600 C.3     
  17 C17           -5.7255     0.2721     2.6548 C.3     
  18 C18           -7.7201     0.2926    -3.4746 C.3     
  19 C19           -8.0661    -0.5108    -2.2194 C.3     
  20 O20           -4.3258     0.4113    -3.0758 O.2     
  21 O21           -5.3173    -1.7525    -2.4009 O.2     
  22 C22           -6.5491    -2.1849     2.4858 C.2     
  23 C23           -6.4389    -3.4531     2.7949 C.2     
  24 C24            2.3152     0.8743    -0.7243 C.ar    
  25 C25            3.6426     1.2562    -0.4389 C.ar    
  26 N26            1.6447     1.4963    -1.6730 N.ar    
  27 C27            2.1641     2.4883    -2.3851 C.ar    
  28 C28            3.4336     2.9323    -2.1816 C.ar    
  29 C29            4.2180     2.3145    -1.1874 C.ar    
  30 C30            5.5328     2.7164    -0.9201 C.ar    
  31 C31            6.2485     2.0722     0.0653 C.ar    
  32 C32            5.6759     1.0267     0.7961 C.ar    
  33 C33            4.3988     0.6217     0.5570 C.ar    
  34 C34            1.3374    -2.7960    -0.4583 C.3     
  35 C35            1.2654    -4.1487     0.2495 C.3     
  36 C36            1.3210    -3.9492     1.7643 C.3     
  37 C37            0.2579    -2.9659     2.1842 C.2     
  38 C38            1.0809    -5.2887     2.4637 C.3     
  39 C39           -0.3541    -5.7505     2.2024 C.3     
  40 C40            2.0594    -6.3311     1.9189 C.3     
  41 O41           -0.2162    -3.0266     3.2989 O.2     
  42 O42            7.5243     2.4566     0.3293 O.3     
  43 C43            8.2141     1.7502     1.3623 C.3     
  44 H44            0.1793    -0.2049    -1.4111 H       
  45 H45           -0.7598    -2.2935    -0.6859 H       
  46 H46           -0.6775    -0.4540     2.6394 H       
  47 H47           -0.1466     1.1052     1.0439 H       
  48 H48           -1.5111     0.5275     0.0400 H       
  49 H49           -3.0356     0.6941     2.1649 H       
  50 H50           -3.8447     0.4277    -0.5729 H       
  51 H51           -6.9288     1.3471    -1.6495 H       
  52 H52           -4.8462    -1.5081     3.7181 H       
  53 H53           -5.2971     0.9659     3.3783 H       
  54 H54           -6.6967     0.5556     2.2494 H       
  55 H55           -8.3663     1.1328    -3.7284 H       
  56 H56           -7.3022    -0.2519    -4.3214 H       
  57 H57           -7.8759    -1.5839    -2.2403 H       
  58 H58           -8.9400    -0.1992    -1.6473 H       
  59 H59           -7.4251    -1.8307     1.9629 H       
  60 H60           -5.5629    -3.8073     3.3179 H       
  61 H61           -7.2241    -4.1445     2.5268 H       
  62 H62            1.5612     2.9568    -3.1489 H       
  63 H63            3.8345     3.7414    -2.7742 H       
  64 H64            5.9812     3.5229    -1.4812 H       
  65 H65            6.2547     0.5353     1.5642 H       
  66 H66            3.9703    -0.1871     1.1302 H       
  67 H67            1.3799    -2.9535    -1.5360 H       
  68 H68            2.2342    -2.2666    -0.1363 H       
  69 H69            0.3328    -4.6467    -0.0159 H       
  70 H70            2.1061    -4.7669    -0.0652 H       
  71 H71            2.3018    -3.5648     2.0440 H       
  72 H72            1.2352    -5.1712     3.5364 H       
  73 H73           -0.5083    -5.8679     1.1298 H       
  74 H74           -0.5251    -6.7047     2.7007 H       
  75 H75           -1.0512    -5.0079     2.5906 H       
  76 H76            3.0791    -5.9589     2.0178 H       
  77 H77            1.9545    -7.2577     2.4831 H       
  78 H78            1.8417    -6.5192     0.8676 H       
  79 H79            8.2746     0.6935     1.1019 H       
  80 H80            9.2200     2.1559     1.4706 H       
  81 H81            7.6739     1.8624     2.3024 H       
@<TRIPOS>BOND
   1    1    2 1
   2    1    6 1
   3    1    5 1
   4    1   44 1
   5    2    3 1
   6    2   34 1
   7    2   45 1
   8    3    4 1
   9    3   37 am
  10    4    5 1
  11    4    7 1
  12    4   46 1
  13    5   47 1
  14    5   48 1
  15    6   24 1
  16    7    8 2
  17    7    9 am
  18    9   10 1
  19    9   49 1
  20   10   11 1
  21   10   16 1
  22   10   17 1
  23   11   12 am
  24   11   13 2
  25   12   14 am
  26   12   50 1
  27   14   15 1
  28   14   20 2
  29   14   21 2
  30   15   18 1
  31   15   19 1
  32   15   51 1
  33   16   17 1
  34   16   22 1
  35   16   52 1
  36   17   53 1
  37   17   54 1
  38   18   19 1
  39   18   55 1
  40   18   56 1
  41   19   57 1
  42   19   58 1
  43   22   23 2
  44   22   59 1
  45   23   60 1
  46   23   61 1
  47   24   25 ar
  48   24   26 ar
  49   25   29 ar
  50   25   33 ar
  51   26   27 ar
  52   27   28 ar
  53   27   62 1
  54   28   29 ar
  55   28   63 1
  56   29   30 ar
  57   30   31 ar
  58   30   64 1
  59   31   32 ar
  60   31   42 1
  61   32   33 ar
  62   32   65 1
  63   33   66 1
  64   34   35 1
  65   34   67 1
  66   34   68 1
  67   35   36 1
  68   35   69 1
  69   35   70 1
  70   36   37 1
  71   36   38 1
  72   36   71 1
  73   37   41 2
  74   38   39 1
  75   38   40 1
  76   38   72 1
  77   39   73 1
  78   39   74 1
  79   39   75 1
  80   40   76 1
  81   40   77 1
  82   40   78 1
  83   42   43 1
  84   43   79 1
  85   43   80 1
  86   43   81 1

#	End of record

