#	Name: ASD08830104
#	Creating user name:	WinNT
#	Creation time:	15. 06. 2019 21:19

#	Modifying user name:	WinNT
#	Modification time:	15. 06. 2019 21:19

#	Program:	/corina/corina34_cracker 3.40 0067  02.08.2006

@<TRIPOS>MOLECULE
ASD08830104
  36   37    0    0    0
SMALL
NO_CHARGES


@<TRIPOS>ATOM
   1 C1            -0.0179     1.4659     0.0101 C.ar    
   2 C2             0.0021    -0.0041     0.0020 C.2     
   3 C3             1.3172    -0.7397    -0.0145 C.3     
   4 C4             1.0581    -2.2476    -0.0201 C.3     
   5 N5             2.3401    -2.9647    -0.0362 N.3     
   6 O6            -1.0398    -0.6247     0.0086 O.2     
   7 C7             1.1824     2.1850     0.0025 C.ar    
   8 C8             1.1567     3.5624     0.0102 C.ar    
   9 C9            -0.0554     4.2363     0.0254 C.ar    
  10 C10           -1.2492     3.5294     0.0335 C.ar    
  11 C11           -1.2376     2.1522     0.0196 C.ar    
  12 C12            2.1422    -4.4028     0.1963 C.3     
  13 C13            3.4931    -5.1184     0.1121 C.3     
  14 O14            4.3950    -4.5362     1.0571 O.3     
  15 C15            4.6112    -3.1363     0.8596 C.3     
  16 C16            3.2717    -2.4007     0.9513 C.3     
  17 F17           -0.0737     5.5872     0.0329 F       
  18 C18           -2.5352     1.3860     0.0279 C.3     
  19 F19           -3.6073     2.2846     0.0500 F       
  20 F20           -2.6155     0.5924    -1.1215 F       
  21 F21           -2.5875     0.5696     1.1628 F       
  22 H22            1.8766    -0.4639    -0.9084 H       
  23 H23            1.8936    -0.4734     0.8715 H       
  24 H24            0.4987    -2.5235     0.8738 H       
  25 H25            0.4817    -2.5139    -0.9061 H       
  26 H26            2.1269     1.6614    -0.0090 H       
  27 H27            2.0824     4.1186     0.0047 H       
  28 H28           -2.1896     4.0602     0.0461 H       
  29 H29            1.7104    -4.5556     1.1854 H       
  30 H30            1.4696    -4.8048    -0.5613 H       
  31 H31            3.3596    -6.1759     0.3402 H       
  32 H32            3.8999    -5.0108    -0.8933 H       
  33 H33            5.2863    -2.7603     1.6283 H       
  34 H34            5.0505    -2.9711    -0.1242 H       
  35 H35            3.4234    -1.3412     0.7449 H       
  36 H36            2.8579    -2.5214     1.9525 H       
@<TRIPOS>BOND
   1    1    2 1
   2    1    7 ar
   3    1   11 ar
   4    2    3 1
   5    2    6 2
   6    3    4 1
   7    3   22 1
   8    3   23 1
   9    4    5 1
  10    4   24 1
  11    4   25 1
  12    5   12 1
  13    5   16 1
  14    7    8 ar
  15    7   26 1
  16    8    9 ar
  17    8   27 1
  18    9   10 ar
  19    9   17 1
  20   10   11 ar
  21   10   28 1
  22   11   18 1
  23   12   13 1
  24   12   29 1
  25   12   30 1
  26   13   14 1
  27   13   31 1
  28   13   32 1
  29   14   15 1
  30   15   16 1
  31   15   33 1
  32   15   34 1
  33   16   35 1
  34   16   36 1
  35   18   19 1
  36   18   20 1
  37   18   21 1

#	End of record

