#	Name: ASD04910190
#	Creating user name:	WinNT
#	Creation time:	15. 06. 2019 20:55

#	Modifying user name:	WinNT
#	Modification time:	15. 06. 2019 20:55

#	Program:	/corina/corina34_cracker 3.40 0067  02.08.2006

@<TRIPOS>MOLECULE
ASD04910190
  24   25    0    0    0
SMALL
NO_CHARGES


@<TRIPOS>ATOM
   1 C1            -0.0168     1.3852     0.0097 C.ar    
   2 C2             0.0021    -0.0041     0.0020 C.ar    
   3 C3             1.2202    -0.6610    -0.0131 C.ar    
   4 C4             2.3824     0.0991    -0.0201 C.ar    
   5 C5             2.2881     1.4780    -0.0118 C.ar    
   6 N6             1.1122     2.0750     0.0026 N.ar    
   7 N7            -1.2410     2.0610     0.0191 N.pl3   
   8 N8            -2.4618     1.5642    -0.4558 N.2     
   9 C9            -3.3755     2.4833    -0.2772 C.2     
  10 C10           -2.7708     3.5968     0.3169 C.2     
  11 C11           -1.4599     3.3140     0.4957 C.2     
  12 C12           -3.4598     4.8821     0.6966 C.3     
  13 F13           -4.8162     4.8000     0.3640 F       
  14 F14           -3.3292     5.0921     2.0736 F       
  15 F15           -2.8737     5.9475     0.0048 F       
  16 C16           -1.2866    -0.7852     0.0106 C.3     
  17 Br17           4.0753    -0.7431    -0.0401 Br      
  18 H18            1.2658    -1.7400    -0.0190 H       
  19 H19            3.1887     2.0741    -0.0172 H       
  20 H20           -4.4187     2.3975    -0.5435 H       
  21 H21           -0.7208     3.9673     0.9353 H       
  22 H22           -1.6075    -0.9680    -1.0149 H       
  23 H23           -1.1310    -1.7374     0.5178 H       
  24 H24           -2.0535    -0.2152     0.5351 H       
@<TRIPOS>BOND
   1    1    2 ar
   2    1    6 ar
   3    1    7 1
   4    2    3 ar
   5    2   16 1
   6    3    4 ar
   7    3   18 1
   8    4    5 ar
   9    4   17 1
  10    5    6 ar
  11    5   19 1
  12    7    8 1
  13    7   11 1
  14    8    9 2
  15    9   10 1
  16    9   20 1
  17   10   11 2
  18   10   12 1
  19   11   21 1
  20   12   13 1
  21   12   14 1
  22   12   15 1
  23   16   22 1
  24   16   23 1
  25   16   24 1

#	End of record

