#	Name: ASD03091269
#	Creating user name:	WinNT
#	Creation time:	15. 06. 2019 20:30

#	Modifying user name:	WinNT
#	Modification time:	15. 06. 2019 20:30

#	Program:	/corina/corina34_cracker 3.40 0067  02.08.2006

@<TRIPOS>MOLECULE
ASD03091269
  37   39    0    0    0
SMALL
NO_CHARGES


@<TRIPOS>ATOM
   1 C1            -0.0179     1.4706     0.0101 C.2     
   2 C2             0.0021    -0.0041     0.0020 C.ar    
   3 C3             1.2216    -0.6880    -0.0133 C.ar    
   4 C4             1.2372    -2.0588    -0.0203 C.ar    
   5 C5             0.0396    -2.7703    -0.0122 C.ar    
   6 C6            -1.1768    -2.0917     0.0030 C.ar    
   7 C7            -1.1984    -0.7210     0.0155 C.ar    
   8 O8             1.0268     2.0929     0.0035 O.2     
   9 N9            -1.1941     2.1285     0.0193 N.am    
  10 C10           -1.2140     3.5934     0.0273 C.3     
  11 N11           -6.5411     5.3974     0.3357 N.pl3   
  12 C12           -6.6944     5.4439     1.6946 C.2     
  13 C13           -5.5590     5.0561     2.2967 C.2     
  14 C14           -4.6002     4.7350     1.2367 C.ar    
  15 C15           -3.2778     4.2871     1.2273 C.ar    
  16 C16           -2.6415     4.0763     0.0367 C.ar    
  17 C17           -3.2993     4.3040    -1.1644 C.ar    
  18 C18           -4.6038     4.7464    -1.1782 C.ar    
  19 C19           -5.2711     4.9676     0.0223 C.ar    
  20 S20            0.0635    -4.5322    -0.0219 S.3     
  21 C21           -1.6982    -4.9642    -0.0067 C.3     
  22 F22           -2.2968    -4.4409     1.1444 F       
  23 F23           -2.3195    -4.4287    -1.1400 F       
  24 H24            2.1504    -0.1369    -0.0199 H       
  25 H25            2.1788    -2.5876    -0.0325 H       
  26 H26           -2.1037    -2.6459     0.0089 H       
  27 H27           -2.1417    -0.1954     0.0315 H       
  28 H28           -2.0275     1.6321     0.0205 H       
  29 H29           -0.7009     3.9588     0.9169 H       
  30 H30           -0.7094     3.9685    -0.8630 H       
  31 H31           -7.2263     5.6288    -0.3107 H       
  32 H32           -7.5952     5.7479     2.2068 H       
  33 H33           -5.3853     4.9928     3.3607 H       
  34 H34           -2.7594     4.1086     2.1578 H       
  35 H35           -2.7830     4.1329    -2.0975 H       
  36 H36           -5.1068     4.9209    -2.1178 H       
  37 H37           -1.8064    -6.0488    -0.0114 H       
@<TRIPOS>BOND
   1    1    2 1
   2    1    8 2
   3    1    9 am
   4    2    3 ar
   5    2    7 ar
   6    3    4 ar
   7    3   24 1
   8    4    5 ar
   9    4   25 1
  10    5    6 ar
  11    5   20 1
  12    6    7 ar
  13    6   26 1
  14    7   27 1
  15    9   10 1
  16    9   28 1
  17   10   16 1
  18   10   29 1
  19   10   30 1
  20   11   12 1
  21   11   19 1
  22   11   31 1
  23   12   13 2
  24   12   32 1
  25   13   14 1
  26   13   33 1
  27   14   15 ar
  28   14   19 ar
  29   15   16 ar
  30   15   34 1
  31   16   17 ar
  32   17   18 ar
  33   17   35 1
  34   18   19 ar
  35   18   36 1
  36   20   21 1
  37   21   22 1
  38   21   23 1
  39   21   37 1

#	End of record

