#	Name: ASD03180004
#	Creating user name:	WinNT
#	Creation time:	15. 06. 2019 20:33

#	Modifying user name:	WinNT
#	Modification time:	15. 06. 2019 20:33

#	Program:	/corina/corina34_cracker 3.40 0067  02.08.2006

@<TRIPOS>MOLECULE
ASD03180004
  50   54    0    0    0
SMALL
NO_CHARGES


@<TRIPOS>ATOM
   1 C1            -0.0189     1.5392     0.0105 C.3     
   2 C2             0.0021    -0.0041     0.0020 C.3     
   3 C3             1.3637    -0.3204     0.6564 C.3     
   4 C4             2.2309     0.8867     0.3700 C.ar    
   5 C5             3.6062     1.0382     0.4293 C.ar    
   6 C6             4.1858     2.2527     0.1191 C.ar    
   7 C7             3.3912     3.3215    -0.2521 C.ar    
   8 C8             2.0195     3.1724    -0.3119 C.ar    
   9 C9             1.4365     1.9552    -0.0012 C.ar    
  10 N10           -1.1019    -0.5457     0.8056 N.3     
  11 C11           -1.4647    -1.8972     0.3586 C.3     
  12 C12           -4.6818    -3.3787     2.7591 C.ar    
  13 C13           -4.9512    -2.6669     1.5923 C.ar    
  14 C14           -3.9085    -2.1898     0.8197 C.ar    
  15 C15           -2.5978    -2.4187     1.2043 C.ar    
  16 C16           -2.3255    -3.1259     2.3636 C.ar    
  17 C17           -3.3620    -3.6066     3.1422 C.ar    
  18 C18           -5.7977    -3.8874     3.5948 C.ar    
  19 C19           -5.5278    -4.5983     4.7603 C.ar    
  20 C20           -6.5787    -5.0718     5.5391 C.ar    
  21 C21           -7.8955    -4.8321     5.1487 C.ar    
  22 C22           -8.1575    -4.1265     3.9911 C.ar    
  23 C23           -7.1180    -3.6490     3.2169 C.ar    
  24 N24           -6.5052    -6.9626     8.6381 N.pl3   
  25 N25           -7.2034    -6.3272     7.5984 N.2     
  26 C26           -6.2987    -5.8313     6.7832 C.2     
  27 N27           -5.0823    -6.1251     7.2616 N.2     
  28 C28           -5.1960    -6.8030     8.3730 C.2     
  29 F29           -1.0451    -3.3463     2.7342 F       
  30 F30           -4.1686    -1.4998    -0.3123 F       
  31 H31           -0.5269     1.9155    -0.8774 H       
  32 H32           -0.5098     1.9059     0.9120 H       
  33 H33           -0.0358    -0.3865    -1.0180 H       
  34 H34            1.2446    -0.4540     1.7316 H       
  35 H35            1.7996    -1.2139     0.2095 H       
  36 H36            4.2276     0.2038     0.7196 H       
  37 H37            5.2586     2.3676     0.1667 H       
  38 H38            3.8427     4.2721    -0.4947 H       
  39 H39            1.3995     4.0078    -0.6020 H       
  40 H40           -0.8711    -0.5395     1.7879 H       
  41 H41           -1.7763    -1.8632    -0.6853 H       
  42 H42           -0.6028    -2.5568     0.4593 H       
  43 H43           -5.9729    -2.4883     1.2915 H       
  44 H44           -3.1487    -4.1582     4.0458 H       
  45 H45           -4.5063    -4.7821     5.0588 H       
  46 H46           -8.7121    -5.1992     5.7526 H       
  47 H47           -9.1790    -3.9433     3.6922 H       
  48 H48           -7.3286    -3.0938     2.3148 H       
  49 H49           -6.8911    -7.4227     9.3999 H       
  50 H50           -4.3791    -7.1721     8.9752 H       
@<TRIPOS>BOND
   1    1    2 1
   2    1    9 1
   3    1   31 1
   4    1   32 1
   5    2    3 1
   6    2   10 1
   7    2   33 1
   8    3    4 1
   9    3   34 1
  10    3   35 1
  11    4    5 ar
  12    4    9 ar
  13    5    6 ar
  14    5   36 1
  15    6    7 ar
  16    6   37 1
  17    7    8 ar
  18    7   38 1
  19    8    9 ar
  20    8   39 1
  21   10   11 1
  22   10   40 1
  23   11   15 1
  24   11   41 1
  25   11   42 1
  26   12   13 ar
  27   12   17 ar
  28   12   18 1
  29   13   14 ar
  30   13   43 1
  31   14   15 ar
  32   14   30 1
  33   15   16 ar
  34   16   17 ar
  35   16   29 1
  36   17   44 1
  37   18   19 ar
  38   18   23 ar
  39   19   20 ar
  40   19   45 1
  41   20   21 ar
  42   20   26 1
  43   21   22 ar
  44   21   46 1
  45   22   23 ar
  46   22   47 1
  47   23   48 1
  48   24   25 1
  49   24   28 1
  50   24   49 1
  51   25   26 2
  52   26   27 1
  53   27   28 2
  54   28   50 1

#	End of record

