#	Name: ASD01020008
#	Creating user name:	WinNT
#	Creation time:	15. 06. 2019 18:56

#	Modifying user name:	WinNT
#	Modification time:	15. 06. 2019 18:56

#	Program:	/corina/corina34_cracker 3.40 0067  02.08.2006

@<TRIPOS>MOLECULE
ASD01020008
  26   25    0    0    0
SMALL
NO_CHARGES


@<TRIPOS>ATOM
   1 N1            -0.0178     1.4648     0.0101 N.3     
   2 C2             0.0021    -0.0041     0.0020 C.3     
   3 C3             0.7309    -0.5033     1.2229 C.2     
   4 C4             0.7182    -0.4975    -1.2568 C.3     
   5 C5            -1.4333    -0.5336     0.0129 C.3     
   6 O6             0.6305     0.1631     2.3838 O.3     
   7 O7             1.4057    -1.5034     1.1568 O.2     
   8 C8             0.0531     0.1104    -2.4933 C.3     
   9 C9             0.7693    -0.3830    -3.7521 C.3     
  10 C10            0.1142     0.2158    -4.9701 C.2     
  11 C11            0.8316     0.8874    -5.8362 C.2     
  12 H12            0.9191     1.8392     0.0032 H       
  13 H13           -0.5563     1.8234    -0.7642 H       
  14 H14            1.7648    -0.1951    -1.2215 H       
  15 H15            0.6556    -1.5845    -1.3079 H       
  16 H16           -1.9605    -0.1726    -0.8702 H       
  17 H17           -1.4185    -1.6235     0.0069 H       
  18 H18           -1.9435    -0.1821     0.9097 H       
  19 H19            1.1161    -0.1955     3.1392 H       
  20 H20           -0.9935    -0.1920    -2.5286 H       
  21 H21            0.1157     1.1974    -2.4422 H       
  22 H22            1.8159    -0.0806    -3.7168 H       
  23 H23            0.7067    -1.4700    -3.8033 H       
  24 H24           -0.9468     0.0912    -5.1288 H       
  25 H25            1.8926     1.0121    -5.6774 H       
  26 H26            0.3622     1.3165    -6.7091 H       
@<TRIPOS>BOND
   1    1    2 1
   2    1   12 1
   3    1   13 1
   4    2    3 1
   5    2    4 1
   6    2    5 1
   7    3    6 1
   8    3    7 2
   9    4    8 1
  10    4   14 1
  11    4   15 1
  12    5   16 1
  13    5   17 1
  14    5   18 1
  15    6   19 1
  16    8    9 1
  17    8   20 1
  18    8   21 1
  19    9   10 1
  20    9   22 1
  21    9   23 1
  22   10   11 2
  23   10   24 1
  24   11   25 1
  25   11   26 1

#	End of record

