#	Name: ASD03900030
#	Creating user name:	WinNT
#	Creation time:	15. 06. 2019 20:47

#	Modifying user name:	WinNT
#	Modification time:	15. 06. 2019 20:47

#	Program:	/corina/corina34_cracker 3.40 0067  02.08.2006

@<TRIPOS>MOLECULE
ASD03900030
  50   52    0    0    0
SMALL
NO_CHARGES


@<TRIPOS>ATOM
   1 C1             0.6294     1.5402    -0.0122 C.ar    
   2 C2             0.4061     0.1773     0.0169 C.ar    
   3 C3             1.4720    -0.7007    -0.0533 C.ar    
   4 C4             2.7635    -0.2173    -0.1527 C.ar    
   5 C5             2.9921     1.1448    -0.1817 C.ar    
   6 C6             1.9244     2.0278    -0.1119 C.ar    
   7 O7             2.1466     3.3682    -0.1407 O.3     
   8 C8             1.2256    -2.1871    -0.0209 C.3     
   9 C9             2.5160    -2.9163    -0.2931 C.ar    
  10 C10            0.7032    -2.5802     1.3369 C.ar    
  11 C11            0.1956    -2.5567    -1.0902 C.3     
  12 C12            1.3950    -2.2113     2.4758 C.ar    
  13 C13            0.9182    -2.5704     3.7217 C.ar    
  14 C14           -0.2557    -3.3018     3.8295 C.ar    
  15 C15           -0.9480    -3.6707     2.6852 C.ar    
  16 C16           -0.4700    -3.3043     1.4419 C.ar    
  17 C17            3.1934    -2.7011    -1.4790 C.ar    
  18 C18            4.3766    -3.3683    -1.7309 C.ar    
  19 C19            4.8849    -4.2548    -0.7927 C.ar    
  20 C20            4.2033    -4.4690     0.3965 C.ar    
  21 C21            3.0235    -3.7951     0.6460 C.ar    
  22 O22           -0.7265    -3.6567     5.0539 O.3     
  23 C23           -1.9408    -4.4092     5.0889 C.3     
  24 C24           -2.3050    -4.7089     6.5203 C.2     
  25 O25           -1.5908    -4.3146     7.4264 O.co2   
  26 O26           -3.3137    -5.3457     6.7721 O.co2   
  27 O27            6.0484    -4.9127    -1.0384 O.3     
  28 C28            6.5121    -5.8102    -0.0276 C.3     
  29 C29            7.8054    -6.4430    -0.4726 C.2     
  30 O30            8.2855    -6.1523    -1.5549 O.co2   
  31 O31            8.3716    -7.2456     0.2498 O.co2   
  32 H32           -0.2038     2.2256     0.0382 H       
  33 H33           -0.6018    -0.2028     0.0949 H       
  34 H34            3.5944    -0.9051    -0.2074 H       
  35 H35            4.0012     1.5220    -0.2587 H       
  36 H36            0.5734    -2.2724    -2.0723 H       
  37 H37            0.0173    -3.6318    -1.0667 H       
  38 H38           -0.7378    -2.0293    -0.8933 H       
  39 H39            2.3090    -1.6422     2.3914 H       
  40 H40            1.4591    -2.2823     4.6110 H       
  41 H41           -1.8621    -4.2401     2.7665 H       
  42 H42           -1.0085    -3.5912     0.5508 H       
  43 H43            2.7971    -2.0111    -2.2092 H       
  44 H44            4.9052    -3.2001    -2.6576 H       
  45 H45            4.5970    -5.1587     1.1284 H       
  46 H46            2.4925    -3.9614     1.5716 H       
  47 H47           -2.7398    -3.8316     4.6241 H       
  48 H48           -1.8047    -5.3441     4.5453 H       
  49 H49            6.6766    -5.2602     0.8990 H       
  50 H50            5.7658    -6.5871     0.1386 H       
@<TRIPOS>BOND
   1    1    2 ar
   2    1    6 ar
   3    1   32 1
   4    2    3 ar
   5    2   33 1
   6    3    4 ar
   7    3    8 1
   8    4    5 ar
   9    4   34 1
  10    5    6 ar
  11    5   35 1
  12    6    7 1
  13    8    9 1
  14    8   10 1
  15    8   11 1
  16    9   17 ar
  17    9   21 ar
  18   10   12 ar
  19   10   16 ar
  20   11   36 1
  21   11   37 1
  22   11   38 1
  23   12   13 ar
  24   12   39 1
  25   13   14 ar
  26   13   40 1
  27   14   15 ar
  28   14   22 1
  29   15   16 ar
  30   15   41 1
  31   16   42 1
  32   17   18 ar
  33   17   43 1
  34   18   19 ar
  35   18   44 1
  36   19   20 ar
  37   19   27 1
  38   20   21 ar
  39   20   45 1
  40   21   46 1
  41   22   23 1
  42   23   24 1
  43   23   47 1
  44   23   48 1
  45   24   25 ar
  46   24   26 ar
  47   27   28 1
  48   28   29 1
  49   28   49 1
  50   28   50 1
  51   29   30 ar
  52   29   31 ar

#	End of record

