#	Name: ASD02770100
#	Creating user name:	WinNT
#	Creation time:	15. 06. 2019 20:26

#	Modifying user name:	WinNT
#	Modification time:	15. 06. 2019 20:26

#	Program:	/corina/corina34_cracker 3.40 0067  02.08.2006

@<TRIPOS>MOLECULE
ASD02770100
  25   27    0    0    0
SMALL
NO_CHARGES


@<TRIPOS>ATOM
   1 C1            -0.0161     1.3343     0.0094 C.2     
   2 C2             0.0021    -0.0041     0.0020 C.2     
   3 C3             1.2779    -0.5920    -0.0133 C.ar    
   4 C4             2.3075     0.3570    -0.0181 C.ar    
   5 S5             1.6171     1.9760    -0.0028 S.3     
   6 C6             3.6421    -0.0607    -0.0330 C.ar    
   7 C7             3.9513    -1.3998    -0.0436 C.ar    
   8 C8             2.9395    -2.3509    -0.0391 C.ar    
   9 C9             1.6222    -1.9666    -0.0233 C.ar    
  10 C10           -1.2344     2.1525     0.0198 C.2     
  11 O11           -2.3270     1.6170     0.0223 O.2     
  12 N12           -1.1430     3.4972     0.0267 N.am    
  13 N13           -4.3613     4.8841     0.0501 N.2     
  14 N14           -3.6444     5.9517     0.0523 N.2     
  15 C15           -2.3791     5.6312     0.0444 C.2     
  16 N16           -2.3060     4.2783     0.0367 N.pl3   
  17 C17           -3.5861     3.8342     0.0405 C.2     
  18 F18            0.6487    -2.9034    -0.0185 F       
  19 Cl19          -1.4535    -0.9501     0.0114 Cl      
  20 H20            4.4343     0.6732    -0.0367 H       
  21 H21            4.9847    -1.7135    -0.0559 H       
  22 H22            3.1912    -3.4011    -0.0475 H       
  23 H23           -0.2720     3.9241     0.0247 H       
  24 H24           -1.5451     6.3173     0.0440 H       
  25 H25           -3.9057     2.8025     0.0368 H       
@<TRIPOS>BOND
   1    1    2 2
   2    1    5 1
   3    1   10 1
   4    2    3 1
   5    2   19 1
   6    3    4 ar
   7    3    9 ar
   8    4    5 1
   9    4    6 ar
  10    6    7 ar
  11    6   20 1
  12    7    8 ar
  13    7   21 1
  14    8    9 ar
  15    8   22 1
  16    9   18 1
  17   10   11 2
  18   10   12 am
  19   12   16 1
  20   12   23 1
  21   13   14 1
  22   13   17 2
  23   14   15 2
  24   15   16 1
  25   15   24 1
  26   16   17 1
  27   17   25 1

#	End of record

