#	Name: ASD01001024
#	Creating user name:	WinNT
#	Creation time:	15. 06. 2019 18:54

#	Modifying user name:	WinNT
#	Modification time:	15. 06. 2019 18:54

#	Program:	/corina/corina34_cracker 3.40 0067  02.08.2006

@<TRIPOS>MOLECULE
ASD01001024
  44   46    0    0    0
SMALL
NO_CHARGES


@<TRIPOS>ATOM
   1 C1            -0.3526     1.0895     0.8829 C.ar    
   2 C2            -0.2201    -0.2654     0.6430 C.ar    
   3 C3             0.7520     1.9168     0.8035 C.ar    
   4 C4             1.0171    -0.7930     0.3237 C.ar    
   5 C5             1.9892     1.3892     0.4842 C.ar    
   6 C6             2.1216     0.0343     0.2438 C.ar    
   7 C7             1.1618    -2.2703     0.0631 C.3     
   8 C8             2.5392    -2.5521    -0.4793 C.ar    
   9 S9             0.9233    -3.1837     1.6121 S.3     
  10 C10            3.3692    -3.4453     0.1722 C.ar    
  11 C11            2.9707    -1.9218    -1.6314 C.ar    
  12 C12            4.6327    -3.7038    -0.3254 C.ar    
  13 C13            4.2342    -2.1803    -2.1290 C.ar    
  14 C14            5.0662    -3.0695    -1.4746 C.ar    
  15 C15            2.1034    -2.3912     2.7390 C.3     
  16 C16            2.1129    -3.1373     4.0747 C.3     
  17 N17            3.0685    -2.4955     4.9873 N.3     
  18 H18            3.0933    -2.9703     5.8773 H       
  19 H19            3.9884    -2.4516     4.5752 H       
  20 H20            1.1157    -3.1087     4.5140 H       
  21 C21            0.1271    -2.7068    -0.9419 C.ar    
  22 C22           -0.3378    -4.0086    -0.9342 C.ar    
  23 C23           -1.2868    -4.4090    -1.8561 C.ar    
  24 C24           -1.7712    -3.5075    -2.7854 C.ar    
  25 C25           -1.3070    -2.2055    -2.7925 C.ar    
  26 C26           -0.3611    -1.8039    -1.8678 C.ar    
  27 H27           -1.3200     1.5024     1.1279 H       
  28 H28           -1.0830    -0.9118     0.7053 H       
  29 H29            0.6484     2.9754     0.9906 H       
  30 H30            2.8520     2.0356     0.4215 H       
  31 H31            3.0883    -0.3780    -0.0049 H       
  32 H32            3.0305    -3.9409     1.0700 H       
  33 H33            2.3205    -1.2276    -2.1430 H       
  34 H34            5.2814    -4.4011     0.1840 H       
  35 H35            4.5712    -1.6881    -3.0293 H       
  36 H36            6.0533    -3.2715    -1.8633 H       
  37 H37            3.1005    -2.4198     2.2998 H       
  38 H38            1.8085    -1.3549     2.9038 H       
  39 H39            2.4077    -4.1736     3.9099 H       
  40 H40            0.0407    -4.7129    -0.2082 H       
  41 H41           -1.6495    -5.4263    -1.8506 H       
  42 H42           -2.5122    -3.8206    -3.5061 H       
  43 H43           -1.6852    -1.5013    -3.5187 H       
  44 H44            0.0016    -0.7867    -1.8733 H       
@<TRIPOS>BOND
   1    1    2 ar
   2    1    3 ar
   3    1   27 1
   4    2    4 ar
   5    2   28 1
   6    3    5 ar
   7    3   29 1
   8    4    6 ar
   9    4    7 1
  10    5    6 ar
  11    5   30 1
  12    6   31 1
  13    7    8 1
  14    7    9 1
  15    7   21 1
  16    8   10 ar
  17    8   11 ar
  18    9   15 1
  19   10   12 ar
  20   10   32 1
  21   11   13 ar
  22   11   33 1
  23   12   14 ar
  24   12   34 1
  25   13   14 ar
  26   13   35 1
  27   14   36 1
  28   15   16 1
  29   15   37 1
  30   15   38 1
  31   16   17 1
  32   16   20 1
  33   16   39 1
  34   17   18 1
  35   17   19 1
  36   21   22 ar
  37   21   26 ar
  38   22   23 ar
  39   22   40 1
  40   23   24 ar
  41   23   41 1
  42   24   25 ar
  43   24   42 1
  44   25   26 ar
  45   25   43 1
  46   26   44 1

#	End of record

