#	Name: ASD03080156
#	Creating user name:	WinNT
#	Creation time:	15. 06. 2019 20:26

#	Modifying user name:	WinNT
#	Modification time:	15. 06. 2019 20:26

#	Program:	/corina/corina34_cracker 3.40 0067  02.08.2006

@<TRIPOS>MOLECULE
ASD03080156
  40   43    0    0    0
SMALL
NO_CHARGES


@<TRIPOS>ATOM
   1 C1            -0.0187     1.5296     0.0105 C.3     
   2 C2             0.0021    -0.0041     0.0020 C.3     
   3 C3             0.7461    -0.4763    -1.2535 C.3     
   4 C4             2.1675     0.0927    -1.2294 C.3     
   5 N5             2.3478     0.9014    -0.0159 N.3     
   6 C6             1.4239     2.0435    -0.0006 C.3     
   7 C7             0.7703    -0.4897     1.2377 C.3     
   8 C8             2.1911     0.0794     1.1920 C.3     
   9 N9            -1.3666    -0.5265     0.0029 N.am    
  10 C10           -1.5800    -1.8572    -0.0038 C.2     
  11 C11           -2.9616    -2.3846    -0.0029 C.ar    
  12 O12           -0.6368    -2.6240    -0.0105 O.2     
  13 C13           -3.1726    -3.7609    -0.0098 C.ar    
  14 C14           -4.4713    -4.2442    -0.0100 C.ar    
  15 C15           -5.5186    -3.3321    -0.0034 C.ar    
  16 C16           -5.2369    -1.9632     0.0063 C.ar    
  17 N17           -3.9872    -1.5392     0.0101 N.ar    
  18 O18           -6.7997    -3.7821    -0.0112 O.3     
  19 C19           -7.8128    -2.8440     0.3686 C.3     
  20 C20           -7.5426    -1.5224    -0.3630 C.3     
  21 O21           -6.2463    -1.0521     0.0209 O.3     
  22 H22           -0.5425     1.8927    -0.8738 H       
  23 H23           -0.5255     1.8831     0.9084 H       
  24 H24            0.7888    -1.5654    -1.2647 H       
  25 H25            0.2252    -0.1202    -2.1423 H       
  26 H26            2.8871    -0.7260    -1.2310 H       
  27 H27            2.3244     0.7169    -2.1091 H       
  28 H28            1.5856     2.6540    -0.8889 H       
  29 H29            1.6028     2.6440     0.8913 H       
  30 H30            0.2669    -0.1432     2.1402 H       
  31 H31            0.8130    -1.5789     1.2364 H       
  32 H32            2.9104    -0.7393     1.1705 H       
  33 H33            2.3653     0.6939     2.0753 H       
  34 H34           -2.1193     0.0854     0.0083 H       
  35 H35           -2.3351    -4.4428    -0.0153 H       
  36 H36           -4.6649    -5.3067    -0.0155 H       
  37 H37           -8.7932    -3.2271     0.0855 H       
  38 H38           -7.7781    -2.6815     1.4459 H       
  39 H39           -7.5695    -1.6867    -1.4402 H       
  40 H40           -8.2975    -0.7873    -0.0841 H       
@<TRIPOS>BOND
   1    1    2 1
   2    1    6 1
   3    1   22 1
   4    1   23 1
   5    2    3 1
   6    2    7 1
   7    2    9 1
   8    3    4 1
   9    3   24 1
  10    3   25 1
  11    4    5 1
  12    4   26 1
  13    4   27 1
  14    5    6 1
  15    5    8 1
  16    6   28 1
  17    6   29 1
  18    7    8 1
  19    7   30 1
  20    7   31 1
  21    8   32 1
  22    8   33 1
  23    9   10 am
  24    9   34 1
  25   10   11 1
  26   10   12 2
  27   11   13 ar
  28   11   17 ar
  29   13   14 ar
  30   13   35 1
  31   14   15 ar
  32   14   36 1
  33   15   16 ar
  34   15   18 1
  35   16   17 ar
  36   16   21 1
  37   18   19 1
  38   19   20 1
  39   19   37 1
  40   19   38 1
  41   20   21 1
  42   20   39 1
  43   20   40 1

#	End of record

