#	Name: ASD01884694
#	Creating user name:	WinNT
#	Creation time:	15. 06. 2019 19:48

#	Modifying user name:	WinNT
#	Modification time:	15. 06. 2019 19:48

#	Program:	/corina/corina34_cracker 3.40 0067  02.08.2006

@<TRIPOS>MOLECULE
ASD01884694
  58   60    0    0    0
SMALL
NO_CHARGES


@<TRIPOS>ATOM
   1 C1            -0.0168     1.3884     0.0097 C.2     
   2 C2             0.0021    -0.0041     0.0020 C.2     
   3 C3            -1.2095    -0.6965     0.0104 C.2     
   4 C4            -2.3831    -0.0157     0.0252 C.2     
   5 N5            -2.4093     1.3392     0.0327 N.am    
   6 C6            -1.2693     2.0558     0.0312 C.2     
   7 O7            -1.3129     3.2741     0.0383 O.2     
   8 C8            -3.6983     2.0352     0.0483 C.3     
   9 C9             1.2059     2.1337     0.0020 C.1     
  10 N10            2.1759     2.7249    -0.0041 N.1     
  11 C11            1.3105    -0.7515    -0.0155 C.3     
  12 C12           -4.1338     2.2698     1.4962 C.3     
  13 C13           -5.4800     2.9967     1.5124 C.3     
  14 C14           -6.5555     2.0919     0.9078 C.3     
  15 C15           -5.8558     3.3419     2.9548 C.3     
  16 N16            1.6901    -1.1066     1.3585 N.3     
  17 C17            2.8331    -2.0385     1.3670 C.3     
  18 C18            3.4057    -1.2378     2.5450 C.3     
  19 C19            2.5867    -0.0896     1.9387 C.3     
  20 O20            2.9453    -1.6719     3.8263 O.3     
  21 C21            3.8850    -1.4641     4.8826 C.3     
  22 C22            3.2983    -1.9554     6.1808 C.ar    
  23 C23            3.4951    -3.2661     6.5748 C.ar    
  24 C24            2.9583    -3.7189     7.7644 C.ar    
  25 C25            2.2213    -2.8574     8.5640 C.ar    
  26 C26            2.0253    -1.5428     8.1664 C.ar    
  27 C27            2.5690    -1.0933     6.9786 C.ar    
  28 O28            1.6918    -3.3006     9.7345 O.3     
  29 C29            0.9446    -2.3584    10.5065 C.3     
  30 F30           -0.1405    -1.8955     9.7545 F       
  31 F31            0.4754    -2.9768    11.6704 F       
  32 F32            1.7674    -1.2804    10.8504 F       
  33 H33           -1.2130    -1.7765     0.0046 H       
  34 H34           -3.3137    -0.5638     0.0308 H       
  35 H35           -3.5999     2.9937    -0.4613 H       
  36 H36           -4.4456     1.4275    -0.4619 H       
  37 H37            1.2023    -1.6595    -0.6087 H       
  38 H38            2.0835    -0.1207    -0.4544 H       
  39 H39           -4.2323     1.3113     2.0058 H       
  40 H40           -3.3866     2.8775     2.0064 H       
  41 H41           -5.4052     3.9132     0.9272 H       
  42 H42           -6.6304     1.1754     1.4930 H       
  43 H43           -7.5146     2.6098     0.9194 H       
  44 H44           -6.2878     1.8460    -0.1198 H       
  45 H45           -5.0896     3.9865     3.3856 H       
  46 H46           -6.8149     3.8597     2.9664 H       
  47 H47           -5.9307     2.4254     3.5401 H       
  48 H48            2.5584    -3.0602     1.6291 H       
  49 H49            3.4448    -1.9836     0.4665 H       
  50 H50            4.4845    -1.0885     2.5007 H       
  51 H51            3.1327     0.4854     1.1908 H       
  52 H52            2.1033     0.5404     2.6853 H       
  53 H53            4.8014    -2.0136     4.6669 H       
  54 H54            4.1099    -0.4007     4.9649 H       
  55 H55            4.0686    -3.9364     5.9518 H       
  56 H56            3.1119    -4.7428     8.0716 H       
  57 H57            1.4520    -0.8702     8.7871 H       
  58 H58            2.4167    -0.0700     6.6686 H       
@<TRIPOS>BOND
   1    1    2 2
   2    1    9 1
   3    1    6 1
   4    2    3 1
   5    2   11 1
   6    3    4 2
   7    3   33 1
   8    4    5 1
   9    4   34 1
  10    5    8 1
  11    5    6 am
  12    6    7 2
  13    8   12 1
  14    8   35 1
  15    8   36 1
  16    9   10 3
  17   11   16 1
  18   11   37 1
  19   11   38 1
  20   12   13 1
  21   12   39 1
  22   12   40 1
  23   13   14 1
  24   13   15 1
  25   13   41 1
  26   14   42 1
  27   14   43 1
  28   14   44 1
  29   15   45 1
  30   15   46 1
  31   15   47 1
  32   16   17 1
  33   16   19 1
  34   17   18 1
  35   17   48 1
  36   17   49 1
  37   18   19 1
  38   18   20 1
  39   18   50 1
  40   19   51 1
  41   19   52 1
  42   20   21 1
  43   21   22 1
  44   21   53 1
  45   21   54 1
  46   22   23 ar
  47   22   27 ar
  48   23   24 ar
  49   23   55 1
  50   24   25 ar
  51   24   56 1
  52   25   26 ar
  53   25   28 1
  54   26   27 ar
  55   26   57 1
  56   27   58 1
  57   28   29 1
  58   29   30 1
  59   29   31 1
  60   29   32 1

#	End of record

