#	Name: ASD02590033
#	Creating user name:	WinNT
#	Creation time:	15. 06. 2019 20:25

#	Modifying user name:	WinNT
#	Modification time:	15. 06. 2019 20:25

#	Program:	/corina/corina34_cracker 3.40 0067  02.08.2006

@<TRIPOS>MOLECULE
ASD02590033
  40   43    0    0    0
SMALL
NO_CHARGES


@<TRIPOS>ATOM
   1 C1            -0.0169     1.3942     0.0097 C.ar    
   2 C2             0.0021    -0.0041     0.0020 C.ar    
   3 C3            -1.1831    -0.7182     0.0100 C.ar    
   4 C4            -2.3961    -0.0439     0.0256 C.ar    
   5 C5            -2.4204     1.3624     0.0334 C.ar    
   6 C6            -1.2147     2.0748     0.0305 C.ar    
   7 N7            -3.7162    -0.4519     0.0373 N.pl3   
   8 C8            -4.4889     0.6792     0.0515 C.2     
   9 N9            -3.7212     1.7405     0.0491 N.2     
  10 C10           -5.9681     0.6991     0.0671 C.ar    
  11 C11           -6.6433     1.9189     0.0808 C.ar    
  12 C12           -8.0278     1.9210     0.0949 C.ar    
  13 C13           -8.6920     0.7031     0.0949 C.ar    
  14 C14           -7.9586    -0.4704     0.0809 C.ar    
  15 N15           -6.6424    -0.4451     0.0625 N.ar    
  16 N16            1.2250    -0.6841    -0.0142 N.3     
  17 C17            1.3646    -1.5488     1.1718 C.3     
  18 C18            1.3488    -1.5228    -1.2255 C.3     
  19 C19            2.1612    -2.7601    -0.7685 C.3     
  20 C20            1.6101    -2.9852     0.6641 C.3     
  21 O21            1.1543     2.0866     0.0022 O.3     
  22 C22            1.0649     3.5128     0.0108 C.3     
  23 F23            0.3885     3.9308     1.1618 F       
  24 F24            2.3521     4.0608     0.0014 F       
  25 F25            0.3666     3.9430    -1.1226 F       
  26 H26           -1.1643    -1.7980     0.0036 H       
  27 H27           -1.2238     3.1547     0.0364 H       
  28 H28           -4.0359    -1.3677     0.0355 H       
  29 H29           -6.0942     2.8489     0.0807 H       
  30 H30           -8.5784     2.8501     0.1060 H       
  31 H31           -9.7715     0.6710     0.1060 H       
  32 H32           -8.4730    -1.4200     0.0808 H       
  33 H33            2.2111    -1.2185     1.7739 H       
  34 H34            0.4503    -1.5161     1.7643 H       
  35 H35            0.3635    -1.8255    -1.5797 H       
  36 H36            1.8850    -0.9842    -2.0068 H       
  37 H37            1.9547    -3.6199    -1.4059 H       
  38 H38            3.2285    -2.5399    -0.7462 H       
  39 H39            2.3479    -3.4928     1.2855 H       
  40 H40            0.6772    -3.5481     0.6341 H       
@<TRIPOS>BOND
   1    1    2 ar
   2    1   21 1
   3    1    6 ar
   4    2    3 ar
   5    2   16 1
   6    3    4 ar
   7    3   26 1
   8    4    5 ar
   9    4    7 1
  10    5    6 ar
  11    5    9 1
  12    6   27 1
  13    7    8 1
  14    7   28 1
  15    8    9 2
  16    8   10 1
  17   10   11 ar
  18   10   15 ar
  19   11   12 ar
  20   11   29 1
  21   12   13 ar
  22   12   30 1
  23   13   14 ar
  24   13   31 1
  25   14   15 ar
  26   14   32 1
  27   16   17 1
  28   16   18 1
  29   17   20 1
  30   17   33 1
  31   17   34 1
  32   18   19 1
  33   18   35 1
  34   18   36 1
  35   19   20 1
  36   19   37 1
  37   19   38 1
  38   20   39 1
  39   20   40 1
  40   21   22 1
  41   22   23 1
  42   22   24 1
  43   22   25 1

#	End of record

