#	Name: ASD00600010
#	Creating user name:	WinNT
#	Creation time:	15. 06. 2019 18:36

#	Modifying user name:	WinNT
#	Modification time:	15. 06. 2019 18:36

#	Program:	/corina/corina34_cracker 3.40 0067  02.08.2006

@<TRIPOS>MOLECULE
ASD00600010
  78   82    0    0    0
SMALL
NO_CHARGES


@<TRIPOS>ATOM
   1 F1             0.7727    -0.3186     0.8005 F       
   2 C2            -0.6007    -0.5493     0.6677 C.3     
   3 F3            -1.2652    -0.0762     1.8043 F       
   4 C4            -1.1234     0.1824    -0.5702 C.3     
   5 C5            -0.8535    -2.0508     0.5172 C.3     
   6 C6            -0.1268    -2.5682    -0.7259 C.3     
   7 C7            -0.6495    -1.8364    -1.9637 C.3     
   8 C8            -0.3967    -0.3350    -1.8132 C.3     
   9 C9             0.0663    -2.3461    -3.1881 C.2     
  10 N10           -0.2326    -1.8423    -4.4019 N.am    
  11 C11           -4.7256    -2.3919   -11.9936 C.2     
  12 N12           -5.5346    -2.1671   -12.9929 N.2     
  13 N13           -6.5889    -1.5648   -12.5693 N.2     
  14 C14           -6.5004    -1.3780   -11.2806 C.2     
  15 N15           -5.3176    -1.9021   -10.8776 N.pl3   
  16 C16           -2.8349    -1.3210    -8.0757 C.3     
  17 C17           -4.7836    -1.9265    -9.5137 C.3     
  18 C18           -4.5581    -3.3780    -9.0808 C.3     
  19 C19           -3.8615    -3.3861    -7.7107 C.3     
  20 N20           -2.5233    -2.7636    -7.8929 N.3     
  21 C21           -3.4569    -1.1627    -9.4724 C.3     
  22 C22           -4.6170    -2.4001    -6.7902 C.3     
  23 C23           -3.9386    -1.0355    -7.0314 C.3     
  24 C24           -0.4159    -2.1186    -6.8250 C.3     
  25 C25           -1.6792    -2.9740    -6.7092 C.3     
  26 H26           -3.7959    -4.3893    -7.2894 H       
  27 H27           -1.9631    -0.6810    -7.9396 H       
  28 C28           -7.5260    -0.7085   -10.4026 C.3     
  29 C29           -3.3845    -3.0755   -12.0665 C.3     
  30 C30           -3.5649    -4.4963   -12.6047 C.3     
  31 C31           -2.4617    -2.2897   -13.0003 C.3     
  32 C32            0.4632    -2.3377    -5.5921 C.3     
  33 C33            1.7616    -1.5917    -5.7620 C.ar    
  34 C34            2.8990    -2.2666    -6.1639 C.ar    
  35 C35            4.0900    -1.5824    -6.3197 C.ar    
  36 C36            4.1434    -0.2231    -6.0739 C.ar    
  37 C37            3.0057     0.4520    -5.6729 C.ar    
  38 C38            1.8137    -0.2315    -5.5213 C.ar    
  39 O39            0.9112    -3.2095    -3.0811 O.2     
  40 H40           -2.1935     0.0027    -0.6737 H       
  41 H41           -0.9433     1.2521    -0.4630 H       
  42 H42           -0.4811    -2.5721     1.3990 H       
  43 H43           -1.9236    -2.2305     0.4136 H       
  44 H44            0.9433    -2.3885    -0.6224 H       
  45 H45           -0.3069    -3.6379    -0.8331 H       
  46 H46           -1.7195    -2.0162    -2.0673 H       
  47 H47           -0.7691     0.1863    -2.6951 H       
  48 H48            0.6734    -0.1552    -1.7097 H       
  49 H49           -0.9083    -1.1517    -4.4874 H       
  50 H50           -5.4950    -1.4528    -8.8372 H       
  51 H51           -5.5176    -3.8897    -9.0056 H       
  52 H52           -3.9290    -3.8839    -9.8132 H       
  53 H53           -3.6371    -0.1069    -9.6742 H       
  54 H54           -2.7783    -1.5690   -10.2224 H       
  55 H55           -5.6703    -2.3542    -7.0667 H       
  56 H56           -4.5104    -2.6975    -5.7470 H       
  57 H57           -3.4984    -0.6620    -6.1068 H       
  58 H58           -4.6583    -0.3186    -7.4265 H       
  59 H59            0.1359    -2.4049    -7.7203 H       
  60 H60           -0.6942    -1.0668    -6.8906 H       
  61 H61           -2.2310    -2.6877    -5.8139 H       
  62 H62           -1.4009    -4.0259    -6.6437 H       
  63 H63           -8.1700    -1.4651    -9.9544 H       
  64 H64           -7.0208    -0.1488    -9.6155 H       
  65 H65           -8.1292    -0.0274   -11.0029 H       
  66 H66           -2.9435    -3.1175   -11.0706 H       
  67 H67           -4.0059    -4.4543   -13.6006 H       
  68 H68           -2.5949    -4.9907   -12.6575 H       
  69 H69           -4.2224    -5.0561   -11.9395 H       
  70 H70           -1.4917    -2.7842   -13.0530 H       
  71 H71           -2.9027    -2.2478   -13.9962 H       
  72 H72           -2.3332    -1.2775   -12.6168 H       
  73 H73            0.6681    -3.4020    -5.4766 H       
  74 H74            2.8573    -3.3286    -6.3559 H       
  75 H75            4.9788    -2.1098    -6.6330 H       
  76 H76            5.0740     0.3114    -6.1949 H       
  77 H77            3.0475     1.5139    -5.4806 H       
  78 H78            0.9249     0.2959    -5.2080 H       
@<TRIPOS>BOND
   1    1    2 1
   2    2    5 1
   3    2    3 1
   4    2    4 1
   5    4    8 1
   6    4   40 1
   7    4   41 1
   8    5    6 1
   9    5   42 1
  10    5   43 1
  11    6    7 1
  12    6   44 1
  13    6   45 1
  14    7    8 1
  15    7    9 1
  16    7   46 1
  17    8   47 1
  18    8   48 1
  19    9   10 am
  20    9   39 2
  21   10   32 1
  22   10   49 1
  23   11   12 2
  24   11   29 1
  25   11   15 1
  26   12   13 1
  27   13   14 2
  28   14   28 1
  29   14   15 1
  30   15   17 1
  31   16   21 1
  32   16   23 1
  33   16   27 1
  34   16   20 1
  35   17   18 1
  36   17   21 1
  37   17   50 1
  38   18   19 1
  39   18   51 1
  40   18   52 1
  41   19   20 1
  42   19   22 1
  43   19   26 1
  44   20   25 1
  45   21   53 1
  46   21   54 1
  47   22   23 1
  48   22   55 1
  49   22   56 1
  50   23   57 1
  51   23   58 1
  52   24   25 1
  53   24   32 1
  54   24   59 1
  55   24   60 1
  56   25   61 1
  57   25   62 1
  58   28   63 1
  59   28   64 1
  60   28   65 1
  61   29   30 1
  62   29   31 1
  63   29   66 1
  64   30   67 1
  65   30   68 1
  66   30   69 1
  67   31   70 1
  68   31   71 1
  69   31   72 1
  70   32   33 1
  71   32   73 1
  72   33   34 ar
  73   33   38 ar
  74   34   35 ar
  75   34   74 1
  76   35   36 ar
  77   35   75 1
  78   36   37 ar
  79   36   76 1
  80   37   38 ar
  81   37   77 1
  82   38   78 1

#	End of record

