#	Name: ASD03331138
#	Creating user name:	WinNT
#	Creation time:	15. 06. 2019 20:38

#	Modifying user name:	WinNT
#	Modification time:	15. 06. 2019 20:38

#	Program:	/corina/corina34_cracker 3.40 0067  02.08.2006

@<TRIPOS>MOLECULE
ASD03331138
  26   27    0    0    0
SMALL
NO_CHARGES


@<TRIPOS>ATOM
   1 C1            -0.1860     1.0165     0.0309 C.2     
   2 N2            -0.2601    -0.3290     0.0055 N.am    
   3 O3             0.8981     1.5650     0.0472 O.2     
   4 O4            -1.3135     1.7531     0.0326 O.3     
   5 C5             0.9024    -1.0890    -0.1130 C.ar    
   6 C6             0.8309    -2.4750    -0.0282 C.ar    
   7 C7             1.9924    -3.2172    -0.1475 C.ar    
   8 C8             3.1905    -2.5449    -0.3482 C.ar    
   9 C9             3.1877    -1.1663    -0.4224 C.ar    
  10 N10            2.0634    -0.4850    -0.3105 N.ar    
  11 C11           -1.1711     3.0989     0.1602 C.ar    
  12 C12           -0.7302     3.8560    -0.9153 C.ar    
  13 C13           -0.5868     5.2236    -0.7833 C.ar    
  14 C14           -0.8824     5.8380     0.4196 C.ar    
  15 C15           -1.3217     5.0855     1.4932 C.ar    
  16 C16           -1.4721     3.7183     1.3645 C.ar    
  17 H17           -1.1225    -0.7685     0.0696 H       
  18 H18           -0.1183    -2.9655     0.1289 H       
  19 H19            1.9677    -4.2952    -0.0854 H       
  20 H20            4.1151    -3.0946    -0.4450 H       
  21 H21            4.1172    -0.6390    -0.5785 H       
  22 H22           -0.4988     3.3766    -1.8550 H       
  23 H23           -0.2432     5.8134    -1.6202 H       
  24 H24           -0.7697     6.9073     0.5209 H       
  25 H25           -1.5513     5.5676     2.4320 H       
  26 H26           -1.8195     3.1316     2.2020 H       
@<TRIPOS>BOND
   1    1    2 am
   2    1    3 2
   3    1    4 1
   4    2    5 1
   5    2   17 1
   6    4   11 1
   7    5    6 ar
   8    5   10 ar
   9    6    7 ar
  10    6   18 1
  11    7    8 ar
  12    7   19 1
  13    8    9 ar
  14    8   20 1
  15    9   10 ar
  16    9   21 1
  17   11   12 ar
  18   11   16 ar
  19   12   13 ar
  20   12   22 1
  21   13   14 ar
  22   13   23 1
  23   14   15 ar
  24   14   24 1
  25   15   16 ar
  26   15   25 1
  27   16   26 1

#	End of record

