#	Name: ASD05940076
#	Creating user name:	WinNT
#	Creation time:	15. 06. 2019 21:04

#	Modifying user name:	WinNT
#	Modification time:	15. 06. 2019 21:04

#	Program:	/corina/corina34_cracker 3.40 0067  02.08.2006

@<TRIPOS>MOLECULE
ASD05940076
  65   68    0    0    0
SMALL
NO_CHARGES


@<TRIPOS>ATOM
   1 N1             0.0304     1.3235     0.1116 N.ar    
   2 C2             0.0374     0.0015     0.0811 C.ar    
   3 N3             1.1615    -0.6964     0.0567 N.ar    
   4 C4             2.3414    -0.0812     0.0622 C.ar    
   5 C5             2.3736     1.3121     0.0905 C.ar    
   6 C6             1.1716     2.0128     0.1171 C.ar    
   7 N7             3.6092     1.9813     0.0872 N.am    
   8 N8             1.1611     3.4007     0.1491 N.pl3   
   9 O9            -1.1452    -0.6602     0.0750 O.3     
  10 C10           -2.3330     0.1337     0.1026 C.3     
  11 C11           -3.5588    -0.7819     0.0910 C.3     
  12 N12            3.5200    -0.8070     0.0458 N.3     
  13 C13            4.5670    -0.1410    -0.7352 C.3     
  14 C14            4.7089     1.2944    -0.2989 C.2     
  15 O15            5.7981     1.8284    -0.2936 O.2     
  16 C16            3.2897    -2.1740    -0.4403 C.3     
  17 C17            4.6142    -2.8525    -0.6777 C.ar    
  18 C18            5.2185    -3.5643     0.3414 C.ar    
  19 C19            6.4336    -4.1868     0.1237 C.ar    
  20 C20            7.0439    -4.0977    -1.1132 C.ar    
  21 C21            6.4390    -3.3864    -2.1329 C.ar    
  22 C22            5.2222    -2.7678    -1.9165 C.ar    
  23 N23            6.6624    -4.4012    -4.3259 N.am    
  24 C24           -4.8306     0.0682     0.1205 C.3     
  25 C25           -6.0563    -0.8474     0.1090 C.3     
  26 C26            7.1047    -3.2889    -3.4814 C.3     
  27 C27            5.4767    -4.2512    -5.1732 C.3     
  28 C28            4.2495    -4.7860    -4.4324 C.3     
  29 C29            2.8865    -4.6116    -5.1054 C.3     
  30 C30            3.5329    -5.9965    -5.0342 C.3     
  31 C31            7.3462    -5.5626    -4.3234 C.2     
  32 O32            8.3775    -5.6577    -3.6924 O.2     
  33 C33            6.8294    -6.7431    -5.1047 C.3     
  34 H34            3.6721     2.9114     0.3551 H       
  35 H35            1.9974     3.8921     0.1531 H       
  36 H36            0.3174     3.8790     0.1675 H       
  37 H37           -2.3425     0.7421     1.0069 H       
  38 H38           -2.3563     0.7831    -0.7725 H       
  39 H39           -3.5493    -1.3903    -0.8133 H       
  40 H40           -3.5355    -1.4313     0.9661 H       
  41 H41            5.5141    -0.6592    -0.5853 H       
  42 H42            4.3041    -0.1727    -1.7925 H       
  43 H43            2.7230    -2.7336     0.3038 H       
  44 H44            2.7276    -2.1379    -1.3735 H       
  45 H45            4.7416    -3.6339     1.3079 H       
  46 H46            6.9061    -4.7424     0.9202 H       
  47 H47            7.9935    -4.5833    -1.2831 H       
  48 H48            4.7496    -2.2122    -2.7130 H       
  49 H49           -4.8400     0.6766     1.0248 H       
  50 H50           -4.8539     0.7176    -0.7546 H       
  51 H51           -6.0469    -1.4558    -0.7954 H       
  52 H52           -6.0330    -1.4968     0.9841 H       
  53 H53           -6.9624    -0.2418     0.1300 H       
  54 H54            6.8334    -2.3444    -3.9530 H       
  55 H55            8.1865    -3.3352    -3.3567 H       
  56 H56            5.3287    -3.1970    -5.4077 H       
  57 H57            5.6168    -4.8127    -6.0969 H       
  58 H58            4.2873    -4.7121    -3.3456 H       
  59 H59            2.0276    -4.4234    -4.4612 H       
  60 H60            2.8641    -4.1158    -6.0758 H       
  61 H61            3.9359    -6.4119    -5.9579 H       
  62 H62            3.0993    -6.7194    -4.3433 H       
  63 H63            5.8544    -6.5003    -5.5273 H       
  64 H64            7.5256    -6.9790    -5.9095 H       
  65 H65            6.7343    -7.6036    -4.4425 H       
@<TRIPOS>BOND
   1    1    2 ar
   2    1    6 ar
   3    2    3 ar
   4    2    9 1
   5    3    4 ar
   6    4    5 ar
   7    4   12 1
   8    5    6 ar
   9    5    7 1
  10    6    8 1
  11    7   14 am
  12    7   34 1
  13    8   35 1
  14    8   36 1
  15    9   10 1
  16   10   11 1
  17   10   37 1
  18   10   38 1
  19   11   24 1
  20   11   39 1
  21   11   40 1
  22   12   13 1
  23   12   16 1
  24   13   14 1
  25   13   41 1
  26   13   42 1
  27   14   15 2
  28   16   17 1
  29   16   43 1
  30   16   44 1
  31   17   18 ar
  32   17   22 ar
  33   18   19 ar
  34   18   45 1
  35   19   20 ar
  36   19   46 1
  37   20   21 ar
  38   20   47 1
  39   21   22 ar
  40   21   26 1
  41   22   48 1
  42   23   27 1
  43   23   31 am
  44   23   26 1
  45   24   25 1
  46   24   49 1
  47   24   50 1
  48   25   51 1
  49   25   52 1
  50   25   53 1
  51   26   54 1
  52   26   55 1
  53   27   28 1
  54   27   56 1
  55   27   57 1
  56   28   29 1
  57   28   30 1
  58   28   58 1
  59   29   30 1
  60   29   59 1
  61   29   60 1
  62   30   61 1
  63   30   62 1
  64   31   32 2
  65   31   33 1
  66   33   63 1
  67   33   64 1
  68   33   65 1

#	End of record

