#	Name: ASD04882209
#	Creating user name:	WinNT
#	Creation time:	15. 06. 2019 20:54

#	Modifying user name:	WinNT
#	Modification time:	15. 06. 2019 20:54

#	Program:	/corina/corina34_cracker 3.40 0067  02.08.2006

@<TRIPOS>MOLECULE
ASD04882209
  76   80    0    0    0
SMALL
NO_CHARGES


@<TRIPOS>ATOM
   1 C1             0.1257     1.4898    -0.4336 C.2     
   2 C2             0.1460     0.0186    -0.4842 C.2     
   3 N3             1.1860    -0.6594     0.0403 N.am    
   4 C4             1.1515    -2.0585     0.0998 C.ar    
   5 C5             2.3303    -2.7943    -0.0510 C.ar    
   6 C6             2.2974    -4.1828     0.0077 C.ar    
   7 C7             1.1041    -4.8384     0.2151 C.ar    
   8 C8            -0.0783    -4.1087     0.3667 C.ar    
   9 C9            -0.0474    -2.7124     0.3133 C.ar    
  10 N10            3.5390    -2.1356    -0.2608 N.3     
  11 C11            3.5457    -1.4483    -1.5598 C.3     
  12 C12            4.6712    -3.0664    -0.1549 C.3     
  13 C13            5.9817    -2.2915    -0.3123 C.3     
  14 N14            5.9884    -1.6042    -1.6112 N.3     
  15 C15            4.8561    -0.6734    -1.7171 C.3     
  16 C16            7.2008    -0.9435    -1.8217 C.ar    
  17 C17            7.9953    -1.2770    -2.9110 C.ar    
  18 C18            7.6122     0.0527    -0.9450 C.ar    
  19 C19            8.8114     0.7039    -1.1560 C.ar    
  20 C20            9.6026     0.3656    -2.2388 C.ar    
  21 C21            9.1937    -0.6217    -3.1161 C.ar    
  22 C22           -1.3565    -4.8113     0.5883 C.2     
  23 N23           -1.3845    -6.1575     0.6448 N.am    
  24 O24           -2.3848    -4.1757     0.7201 O.2     
  25 O25           -0.7758    -0.5850    -0.9996 O.2     
  26 S26            1.3771     2.5071     0.2736 S.3     
  27 C27            0.4864     3.9073    -0.1417 C.2     
  28 C28           -0.6471     3.5395    -0.7594 C.2     
  29 N29           -0.8204     2.2527    -0.9107 N.2     
  30 C30            7.5505    -2.3530    -3.8678 C.3     
  31 C31           -2.6538    -6.8552     0.8649 C.3     
  32 C32           -2.4088    -8.3653     0.8862 C.3     
  33 C33           -3.7343    -9.0939     1.1160 C.3     
  34 N34           -3.4997   -10.5398     1.1364 N.am    
  35 C35           -3.1850   -11.3108     2.3449 C.3     
  36 C36           -2.6040   -12.6501     1.8398 C.3     
  37 C37           -3.2443   -12.7624     0.4368 C.3     
  38 C38           -3.5506   -11.3318     0.0515 C.2     
  39 O39           -3.7987   -10.9534    -1.0738 O.2     
  40 F40           -1.3466     4.9066    -2.5691 F       
  41 F41           -2.9346     3.9857    -1.2091 F       
  42 C42           -1.6537     4.5467    -1.2526 C.3     
  43 F43           -1.6144     5.6829    -0.4372 F       
  44 H44            1.9583    -0.1786     0.3768 H       
  45 H45            3.2097    -4.7488    -0.1098 H       
  46 H46            1.0820    -5.9172     0.2603 H       
  47 H47           -0.9594    -2.1460     0.4304 H       
  48 H48            3.4592    -2.1830    -2.3604 H       
  49 H49            2.7054    -0.7557    -1.6091 H       
  50 H50            4.6516    -3.5535     0.8200 H       
  51 H51            4.5976    -3.8194    -0.9395 H       
  52 H52            6.0681    -1.5568     0.4883 H       
  53 H53            6.8219    -2.9841    -0.2630 H       
  54 H54            4.8757    -0.1863    -2.6921 H       
  55 H55            4.9297     0.0796    -0.9325 H       
  56 H56            6.9945     0.3178    -0.0997 H       
  57 H57            9.1318     1.4784    -0.4749 H       
  58 H58           10.5398     0.8770    -2.4019 H       
  59 H59            9.8140    -0.8835    -3.9607 H       
  60 H60           -0.5643    -6.6646     0.5397 H       
  61 H61            0.7876     4.9244     0.0611 H       
  62 H62            6.9594    -1.9065    -4.6674 H       
  63 H63            8.4250    -2.8449    -4.2936 H       
  64 H64            6.9451    -3.0860    -3.3344 H       
  65 H65           -3.0796    -6.5427     1.8184 H       
  66 H66           -3.3470    -6.6109     0.0600 H       
  67 H67           -1.9830    -8.6777    -0.0674 H       
  68 H68           -1.7155    -8.6096     1.6911 H       
  69 H69           -4.1601    -8.7815     2.0696 H       
  70 H70           -4.4276    -8.8496     0.3111 H       
  71 H71           -2.4462   -10.7825     2.9476 H       
  72 H72           -4.0901   -11.4875     2.9260 H       
  73 H73           -1.5173   -12.6022     1.7699 H       
  74 H74           -2.9163   -13.4763     2.4784 H       
  75 H75           -2.5428   -13.2084    -0.2681 H       
  76 H76           -4.1636   -13.3462     0.4827 H       
@<TRIPOS>BOND
   1    1    2 1
   2    1   26 1
   3    1   29 2
   4    2    3 am
   5    2   25 2
   6    3    4 1
   7    3   44 1
   8    4    5 ar
   9    4    9 ar
  10    5    6 ar
  11    5   10 1
  12    6    7 ar
  13    6   45 1
  14    7    8 ar
  15    7   46 1
  16    8    9 ar
  17    8   22 1
  18    9   47 1
  19   10   11 1
  20   10   12 1
  21   11   15 1
  22   11   48 1
  23   11   49 1
  24   12   13 1
  25   12   50 1
  26   12   51 1
  27   13   14 1
  28   13   52 1
  29   13   53 1
  30   14   15 1
  31   14   16 1
  32   15   54 1
  33   15   55 1
  34   16   17 ar
  35   16   18 ar
  36   17   30 1
  37   17   21 ar
  38   18   19 ar
  39   18   56 1
  40   19   20 ar
  41   19   57 1
  42   20   21 ar
  43   20   58 1
  44   21   59 1
  45   22   23 am
  46   22   24 2
  47   23   31 1
  48   23   60 1
  49   26   27 1
  50   27   28 2
  51   27   61 1
  52   28   29 1
  53   28   42 1
  54   30   62 1
  55   30   63 1
  56   30   64 1
  57   31   32 1
  58   31   65 1
  59   31   66 1
  60   32   33 1
  61   32   67 1
  62   32   68 1
  63   33   34 1
  64   33   69 1
  65   33   70 1
  66   34   35 1
  67   34   38 am
  68   35   36 1
  69   35   71 1
  70   35   72 1
  71   36   37 1
  72   36   73 1
  73   36   74 1
  74   37   38 1
  75   37   75 1
  76   37   76 1
  77   38   39 2
  78   40   42 1
  79   41   42 1
  80   42   43 1

#	End of record

