#	Name: ASD00310120
#	Creating user name:	WinNT
#	Creation time:	15. 06. 2019 18:33

#	Modifying user name:	WinNT
#	Modification time:	15. 06. 2019 18:33

#	Program:	/corina/corina34_cracker 3.40 0067  02.08.2006

@<TRIPOS>MOLECULE
ASD00310120
  40   42    0    0    0
SMALL
NO_CHARGES


@<TRIPOS>ATOM
   1 C1            -0.0188     1.5336     0.0105 C.3     
   2 C2             0.0021    -0.0041     0.0020 C.3     
   3 C3             1.3815     0.0967    -0.6702 C.3     
   4 C4             1.5179     1.4762    -0.0045 C.3     
   5 O5            -0.5818     2.1049    -1.1721 O.3     
   6 C6            -0.5886     2.1226     1.2751 C.ar    
   7 C7            -1.2408     3.3423     1.2346 C.ar    
   8 C8            -1.7644     3.8863     2.3894 C.ar    
   9 C9            -1.6357     3.2046     3.5984 C.ar    
  10 C10           -0.9781     1.9760     3.6334 C.ar    
  11 C11           -0.4626     1.4391     2.4716 C.ar    
  12 O12           -2.1079     3.1368     6.1635 O.3     
  13 B13           -2.2289     3.8185     4.9160 Du      
  14 O14           -2.9046     5.0749     4.9018 O.3     
  15 C15           -2.4350     5.9655     5.9215 C.3     
  16 C16           -2.4860     5.2474     7.2733 C.3     
  17 C17           -1.6209     3.9851     7.2107 C.3     
  18 C18           -1.9538     6.1772     8.3656 C.3     
  19 C19           -3.9316     4.8603     7.5915 C.3     
  20 H20            0.0329    -0.4458     0.9980 H       
  21 H21           -0.7629    -0.4476    -0.6353 H       
  22 H22            2.0998    -0.6373    -0.3050 H       
  23 H23            1.3349     0.1396    -1.7584 H       
  24 H24            1.9766     2.2276    -0.6471 H       
  25 H25            1.9632     1.4391     0.9897 H       
  26 H26           -0.5977     3.0718    -1.1727 H       
  27 H27           -1.3399     3.8696     0.2973 H       
  28 H28           -2.2726     4.8386     2.3567 H       
  29 H29           -0.8753     1.4438     4.5675 H       
  30 H30            0.0438     0.4856     2.4969 H       
  31 H31           -1.4085     6.2604     5.7037 H       
  32 H32           -3.0709     6.8501     5.9543 H       
  33 H33           -1.6763     3.4574     8.1629 H       
  34 H34           -0.5868     4.2615     7.0050 H       
  35 H35           -2.5685     7.0764     8.4086 H       
  36 H36           -1.9902     5.6659     9.3276 H       
  37 H37           -0.9236     6.4518     8.1389 H       
  38 H38           -4.3098     4.1971     6.8135 H       
  39 H39           -3.9675     4.3493     8.5536 H       
  40 H40           -4.5473     5.7587     7.6341 H       
@<TRIPOS>BOND
   1    1    2 1
   2    1    4 1
   3    1    5 1
   4    1    6 1
   5    2    3 1
   6    2   20 1
   7    2   21 1
   8    3    4 1
   9    3   22 1
  10    3   23 1
  11    4   24 1
  12    4   25 1
  13    5   26 1
  14    6    7 ar
  15    6   11 ar
  16    7    8 ar
  17    7   27 1
  18    8    9 ar
  19    8   28 1
  20    9   10 ar
  21    9   13 1
  22   10   11 ar
  23   10   29 1
  24   11   30 1
  25   12   13 1
  26   12   17 1
  27   13   14 1
  28   14   15 1
  29   15   16 1
  30   15   31 1
  31   15   32 1
  32   16   17 1
  33   16   18 1
  34   16   19 1
  35   17   33 1
  36   17   34 1
  37   18   35 1
  38   18   36 1
  39   18   37 1
  40   19   38 1
  41   19   39 1
  42   19   40 1

#	End of record

