#	Name: ASD03091702
#	Creating user name:	WinNT
#	Creation time:	15. 06. 2019 20:31

#	Modifying user name:	WinNT
#	Modification time:	15. 06. 2019 20:31

#	Program:	/corina/corina34_cracker 3.40 0067  02.08.2006

@<TRIPOS>MOLECULE
ASD03091702
  41   44    0    0    0
SMALL
NO_CHARGES


@<TRIPOS>ATOM
   1 C1            -0.0188     1.5354     0.0105 C.3     
   2 C2             0.0021    -0.0041     0.0020 C.3     
   3 N3             0.0279    -0.4602     1.4021 N.3     
   4 C4             0.0781     0.7235     2.2834 C.3     
   5 C5            -0.5170     1.8802     1.4507 C.3     
   6 C6             0.2659     3.1734     1.7649 C.3     
   7 N7             1.5706     3.0168     1.1019 N.am    
   8 C8             1.4290     2.0576    -0.0005 C.3     
   9 C9             2.7084     3.6502     1.4495 C.2     
  10 O10            2.7100     4.4289     2.3851 O.2     
  11 C11            3.9425     3.4016     0.7017 C.2     
  12 C12            5.1685     3.9811     0.9524 C.2     
  13 O13            4.0750     2.5618    -0.3467 O.3     
  14 C14            5.3478     2.5879    -0.7817 C.2     
  15 C15            6.0611     3.4674     0.0100 C.2     
  16 C16            5.8747     1.8303    -1.8767 C.1     
  17 C17            6.3066     1.2091    -2.7744 C.1     
  18 C18            6.8334     0.4515    -3.8694 C.ar    
  19 C19            8.1815     0.5700    -4.2219 C.ar    
  20 C20            8.6813    -0.1629    -5.2776 C.ar    
  21 C21            7.8524    -1.0137    -5.9880 C.ar    
  22 C22            6.5170    -1.1361    -5.6455 C.ar    
  23 C23            6.0038    -0.4150    -4.5881 C.ar    
  24 H24           -0.6324     1.9593    -0.7844 H       
  25 H25           -0.8919    -0.3828    -0.4934 H       
  26 H26            0.8918    -0.3585    -0.5184 H       
  27 H27           -0.7764    -1.0325     1.6108 H       
  28 H28           -0.5221     0.5543     3.1774 H       
  29 H29            1.1093     0.9470     2.5570 H       
  30 H30           -1.5995     1.9734     1.5378 H       
  31 H31           -0.2598     4.0393     1.3624 H       
  32 H32            0.4006     3.2803     2.8412 H       
  33 H33            2.1216     1.2279     0.1411 H       
  34 H34            1.6353     2.5530    -0.9493 H       
  35 H35            5.3947     4.6965     1.7293 H       
  36 H36            7.1091     3.7111    -0.0828 H       
  37 H37            8.8293     1.2340    -3.6690 H       
  38 H38            9.7222    -0.0725    -5.5511 H       
  39 H39            8.2496    -1.5848    -6.8140 H       
  40 H40            5.8763    -1.8016    -6.2050 H       
  41 H41            4.9616    -0.5116    -4.3220 H       
@<TRIPOS>BOND
   1    1    2 1
   2    1    8 1
   3    1    5 1
   4    1   24 1
   5    2    3 1
   6    2   25 1
   7    2   26 1
   8    3    4 1
   9    3   27 1
  10    4    5 1
  11    4   28 1
  12    4   29 1
  13    5    6 1
  14    5   30 1
  15    6    7 1
  16    6   31 1
  17    6   32 1
  18    7    8 1
  19    7    9 am
  20    8   33 1
  21    8   34 1
  22    9   10 2
  23    9   11 1
  24   11   12 2
  25   11   13 1
  26   12   15 1
  27   12   35 1
  28   13   14 1
  29   14   15 2
  30   14   16 1
  31   15   36 1
  32   16   17 3
  33   17   18 1
  34   18   19 ar
  35   18   23 ar
  36   19   20 ar
  37   19   37 1
  38   20   21 ar
  39   20   38 1
  40   21   22 ar
  41   21   39 1
  42   22   23 ar
  43   22   40 1
  44   23   41 1

#	End of record

