#	Name: ASD04880070
#	Creating user name:	WinNT
#	Creation time:	15. 06. 2019 20:52

#	Modifying user name:	WinNT
#	Modification time:	15. 06. 2019 20:52

#	Program:	/corina/corina34_cracker 3.40 0067  02.08.2006

@<TRIPOS>MOLECULE
ASD04880070
  44   47    0    0    0
SMALL
NO_CHARGES


@<TRIPOS>ATOM
   1 C1            -0.0144     1.2121     0.0087 C.2     
   2 O2            -0.1837     0.0078    -0.0120 O.2     
   3 N3             1.2352     1.7168     0.0259 N.am    
   4 N4             1.5645     3.0684    -0.0532 N.2     
   5 C5             2.8307     3.3046    -0.0169 C.2     
   6 C6             3.5847     1.9995     0.1038 C.3     
   7 C7             2.4742     0.9308     0.1376 C.3     
   8 C8             3.4490     4.6412    -0.0830 C.ar    
   9 C9             2.6460     5.7798    -0.1939 C.ar    
  10 C10            3.2308     7.0304    -0.2555 C.ar    
  11 C11            4.6180     7.1542    -0.2070 C.ar    
  12 C12            5.4152     6.0246    -0.0970 C.ar    
  13 C13            4.8385     4.7734    -0.0292 C.ar    
  14 O14            5.1914     8.3852    -0.2682 O.3     
  15 C15            6.6183     8.4398    -0.2134 C.3     
  16 O16            2.4525     8.1403    -0.3638 O.3     
  17 C17            1.0384     7.9393    -0.4085 C.3     
  18 O18           -4.2878     4.8196     0.1614 O.3     
  19 C19           -3.5478     5.9614     0.6317 C.3     
  20 O20           -2.4199     5.3820     1.3138 O.3     
  21 C21           -2.2151     4.1719     0.7151 C.ar    
  22 C22           -3.3666     3.8263     0.0051 C.ar    
  23 C23           -1.1254     3.3243     0.7178 C.ar    
  24 C24           -1.1767     2.1204     0.0089 C.ar    
  25 C25           -2.3323     1.7800    -0.7001 C.ar    
  26 C26           -3.4174     2.6313    -0.6986 C.ar    
  27 Br27          -2.4075     0.1534    -1.6615 Br      
  28 H28            4.2356     1.8529    -0.7581 H       
  29 H29            4.1616     1.9754     1.0283 H       
  30 H30            2.4964     0.3814     1.0787 H       
  31 H31            2.5740     0.2499    -0.7077 H       
  32 H32            1.5711     5.6825    -0.2316 H       
  33 H33            6.4899     6.1252    -0.0598 H       
  34 H34            5.4615     3.8958     0.0613 H       
  35 H35            6.9629     8.0025     0.7237 H       
  36 H36            7.0357     7.8804    -1.0506 H       
  37 H37            6.9446     9.4782    -0.2715 H       
  38 H38            0.7866     7.3198    -1.2692 H       
  39 H39            0.7132     7.4415     0.5050 H       
  40 H40            0.5370     8.9032    -0.4953 H       
  41 H41           -3.2151     6.5738    -0.2064 H       
  42 H42           -4.1512     6.5508     1.3221 H       
  43 H43           -0.2343     3.5911     1.2666 H       
  44 H44           -4.3097     2.3669    -1.2465 H       
@<TRIPOS>BOND
   1    1    2 2
   2    1    3 am
   3    1   24 1
   4    3    4 1
   5    3    7 1
   6    4    5 2
   7    5    6 1
   8    5    8 1
   9    6    7 1
  10    6   28 1
  11    6   29 1
  12    7   30 1
  13    7   31 1
  14    8    9 ar
  15    8   13 ar
  16    9   10 ar
  17    9   32 1
  18   10   11 ar
  19   10   16 1
  20   11   12 ar
  21   11   14 1
  22   12   13 ar
  23   12   33 1
  24   13   34 1
  25   14   15 1
  26   15   35 1
  27   15   36 1
  28   15   37 1
  29   16   17 1
  30   17   38 1
  31   17   39 1
  32   17   40 1
  33   18   19 1
  34   18   22 1
  35   19   20 1
  36   19   41 1
  37   19   42 1
  38   20   21 1
  39   21   22 ar
  40   21   23 ar
  41   22   26 ar
  42   23   24 ar
  43   23   43 1
  44   24   25 ar
  45   25   26 ar
  46   25   27 1
  47   26   44 1

#	End of record

