#	Name: ASD01915050
#	Creating user name:	WinNT
#	Creation time:	15. 06. 2019 20:04

#	Modifying user name:	WinNT
#	Modification time:	15. 06. 2019 20:04

#	Program:	/corina/corina34_cracker 3.40 0067  02.08.2006

@<TRIPOS>MOLECULE
ASD01915050
  35   37    0    0    0
SMALL
NO_CHARGES


@<TRIPOS>ATOM
   1 C1            -0.0187     1.5258     0.0104 C.3     
   2 C2             0.0021    -0.0041     0.0020 C.3     
   3 C3             0.7421    -0.5109     1.2415 C.3     
   4 C4             2.1775     0.0187     1.2307 C.3     
   5 C5             2.1567     1.5485     1.2391 C.3     
   6 C6             1.4167     2.0553    -0.0004 C.3     
   7 C7            -0.7475     2.0250    -1.2105 C.2     
   8 O8            -1.2053     1.2351    -2.0086 O.2     
   9 N9            -0.8907     3.3494    -1.4153 N.am    
  10 C10           -1.5604     3.8081    -2.5370 C.2     
  11 N11           -2.1145     3.0134    -3.4987 N.pl3   
  12 C12           -2.6862     3.8491    -4.4426 C.ar    
  13 C13           -2.4467     5.1606    -3.9988 C.ar    
  14 N14           -1.7609     5.0675    -2.8298 N.2     
  15 C15           -2.9122     6.2384    -4.7559 C.ar    
  16 C16           -3.5993     6.0059    -5.9263 C.ar    
  17 C17           -3.8333     4.7094    -6.3595 C.ar    
  18 C18           -3.3795     3.6339    -5.6239 C.ar    
  19 H19           -0.5289     1.8773     0.9072 H       
  20 H20           -1.0205    -0.3814     0.0098 H       
  21 H21            0.5123    -0.3556    -0.8948 H       
  22 H22            0.2319    -0.1594     2.1383 H       
  23 H23            0.7568    -1.6008     1.2356 H       
  24 H24            2.7046    -0.3424     2.1137 H       
  25 H25            2.6876    -0.3328     0.3339 H       
  26 H26            1.6465     1.9000     2.1359 H       
  27 H27            3.1793     1.9258     1.2314 H       
  28 H28            1.9269     1.7038    -0.8972 H       
  29 H29            1.4019     3.1452     0.0056 H       
  30 H30           -0.5245     3.9812    -0.7768 H       
  31 H31           -2.1088     2.0436    -3.5172 H       
  32 H32           -2.7341     7.2507    -4.4241 H       
  33 H33           -3.9590     6.8395    -6.5112 H       
  34 H34           -4.3741     4.5404    -7.2790 H       
  35 H35           -3.5642     2.6267    -5.9673 H       
@<TRIPOS>BOND
   1    1    2 1
   2    1    6 1
   3    1    7 1
   4    1   19 1
   5    2    3 1
   6    2   20 1
   7    2   21 1
   8    3    4 1
   9    3   22 1
  10    3   23 1
  11    4    5 1
  12    4   24 1
  13    4   25 1
  14    5    6 1
  15    5   26 1
  16    5   27 1
  17    6   28 1
  18    6   29 1
  19    7    8 2
  20    7    9 am
  21    9   10 1
  22    9   30 1
  23   10   11 1
  24   10   14 2
  25   11   12 1
  26   11   31 1
  27   12   13 ar
  28   12   18 ar
  29   13   14 1
  30   13   15 ar
  31   15   16 ar
  32   15   32 1
  33   16   17 ar
  34   16   33 1
  35   17   18 ar
  36   17   34 1
  37   18   35 1

#	End of record

