#	Name: ASD01148069
#	Creating user name:	WinNT
#	Creation time:	15. 06. 2019 19:01

#	Modifying user name:	WinNT
#	Modification time:	15. 06. 2019 19:01

#	Program:	/corina/corina34_cracker 3.40 0067  02.08.2006

@<TRIPOS>MOLECULE
ASD01148069
  22   21    0    0    0
SMALL
NO_CHARGES


@<TRIPOS>ATOM
   1 N1            -0.0162     1.3436     0.0094 N.am    
   2 C2             1.2424     2.0932     0.0014 C.3     
   3 C3             1.0175     3.4741     0.6207 C.3     
   4 O4             0.1244     4.2260    -0.2035 O.3     
   5 C5             1.7238     2.2515    -1.4178 C.2     
   6 O6             1.0815     1.7859    -2.3291 O.2     
   7 O7             2.8662     2.9098    -1.6695 O.3     
   8 C8            -0.1540     5.5386     0.2879 C.3     
   9 F9            -0.7395     5.4477     1.5553 F       
  10 F10            1.0377     6.2661     0.3759 F       
  11 C11            0.0021    -0.0041     0.0020 C.2     
  12 C12           -1.2926    -0.7753     0.0102 C.3     
  13 O13            1.0605    -0.5961    -0.0113 O.2     
  14 H14           -0.8627     1.8170     0.0241 H       
  15 H15            1.9909     1.5528     0.5809 H       
  16 H16            0.5856     3.3605     1.6150 H       
  17 H17            1.9703     3.9981     0.6961 H       
  18 H18            3.1343     2.9856    -2.5955 H       
  19 H19           -0.8387     6.0439    -0.3932 H       
  20 H20           -2.1306    -0.0783     0.0220 H       
  21 H21           -1.3504    -1.3978    -0.8826 H       
  22 H22           -1.3334    -1.4074     0.8973 H       
@<TRIPOS>BOND
   1    1   11 am
   2    1    2 1
   3    1   14 1
   4    2    3 1
   5    2    5 1
   6    2   15 1
   7    3    4 1
   8    3   16 1
   9    3   17 1
  10    4    8 1
  11    5    6 2
  12    5    7 1
  13    7   18 1
  14    8    9 1
  15    8   10 1
  16    8   19 1
  17   11   12 1
  18   11   13 2
  19   12   20 1
  20   12   21 1
  21   12   22 1

#	End of record

