#	Name: ASD00170239
#	Creating user name:	WinNT
#	Creation time:	15. 06. 2019 18:31

#	Modifying user name:	WinNT
#	Modification time:	15. 06. 2019 18:31

#	Program:	/corina/corina34_cracker 3.40 0067  02.08.2006

@<TRIPOS>MOLECULE
ASD00170239
  27   28    0    0    0
SMALL
NO_CHARGES


@<TRIPOS>ATOM
   1 C1            -0.0160     1.3304     0.0094 C.2     
   2 C2             0.0021    -0.0041     0.0020 C.2     
   3 C3            -1.3370    -0.5763     0.0230 C.2     
   4 C4            -2.3289     0.3653     0.0386 C.2     
   5 S5            -1.6681     1.9332     0.0360 S.3     
   6 N6            -3.6808     0.0823     0.0574 N.pl3   
   7 C7            -1.5955    -2.0157     0.0262 C.2     
   8 O8            -1.7333    -2.6789    -1.1406 O.3     
   9 O9            -1.6863    -2.6151     1.0810 O.2     
  10 C10            1.2106     2.2190     0.0024 C.3     
  11 C11            2.1912     1.7488    -1.0706 C.3     
  12 C12            3.1478     0.7261    -0.4639 C.3     
  13 C13            2.4230    -0.0926     0.6021 C.3     
  14 C14            1.2628    -0.8507    -0.0355 C.3     
  15 H15           -3.9834    -0.8393     0.0603 H       
  16 H16           -4.3275     0.8051     0.0678 H       
  17 H17           -1.9018    -3.6255    -1.0374 H       
  18 H18            0.9117     3.2463    -0.2059 H       
  19 H19            1.6942     2.1756     0.9783 H       
  20 H20            1.6401     1.2898    -1.8914 H       
  21 H21            2.7586     2.6013    -1.4440 H       
  22 H22            3.5108     0.0605    -1.2471 H       
  23 H23            3.9925     1.2446    -0.0104 H       
  24 H24            3.1184    -0.8027     1.0495 H       
  25 H25            2.0398     0.5749     1.3740 H       
  26 H26            1.0922    -1.7775     0.5121 H       
  27 H27            1.5099    -1.0852    -1.0709 H       
@<TRIPOS>BOND
   1    1    2 2
   2    1   10 1
   3    1    5 1
   4    2    3 1
   5    2   14 1
   6    3    4 2
   7    3    7 1
   8    4    5 1
   9    4    6 1
  10    6   15 1
  11    6   16 1
  12    7    8 1
  13    7    9 2
  14    8   17 1
  15   10   11 1
  16   10   18 1
  17   10   19 1
  18   11   12 1
  19   11   20 1
  20   11   21 1
  21   12   13 1
  22   12   22 1
  23   12   23 1
  24   13   14 1
  25   13   24 1
  26   13   25 1
  27   14   26 1
  28   14   27 1

#	End of record

