#	Name: ASD02448192
#	Creating user name:	WinNT
#	Creation time:	15. 06. 2019 20:22

#	Modifying user name:	WinNT
#	Modification time:	15. 06. 2019 20:22

#	Program:	/corina/corina34_cracker 3.40 0067  02.08.2006

@<TRIPOS>MOLECULE
ASD02448192
  71   75    0    0    0
SMALL
NO_CHARGES


@<TRIPOS>ATOM
   1 C1             0.2650     1.2082    -0.2155 C.ar    
   2 C2             0.2494    -0.1721    -0.1612 C.ar    
   3 C3             1.4428    -0.8799    -0.0957 C.ar    
   4 C4             2.6512    -0.1997    -0.0848 C.ar    
   5 C5             2.6642     1.1873    -0.1394 C.ar    
   6 C6             1.4671     1.8894    -0.2047 C.ar    
   7 N7             3.8792     1.8762    -0.1281 N.am    
   8 C8             4.1628     3.2145    -0.6625 C.3     
   9 C9             5.5934     3.5924    -0.4506 C.2     
  10 N10            6.3332     2.6638     0.1718 N.am    
  11 S11            5.3388     1.3704     0.5020 S.o2    
  12 O12            6.0493     4.6559    -0.8138 O.2     
  13 O13            5.1934     1.3029     1.9139 O.2     
  14 O14            5.7809     0.2856    -0.3024 O.2     
  15 N15            1.4256    -2.2807    -0.0403 N.pl3   
  16 C16            2.0583    -3.1353    -0.9031 C.2     
  17 C17            0.7827    -3.0428     0.8833 C.2     
  18 N18            0.9949    -4.3005     0.6135 N.2     
  19 C19            1.7769    -4.3955    -0.4810 C.2     
  20 C20            2.2462    -5.6533    -1.1125 C.ar    
  21 C21            1.8805    -6.8863    -0.5727 C.ar    
  22 C22            3.0492    -5.6070    -2.2502 C.ar    
  23 C23            3.4833    -6.7799    -2.8341 C.ar    
  24 C24            3.1223    -8.0013    -2.2919 C.ar    
  25 C25            2.3203    -8.0538    -1.1646 C.ar    
  26 C26           -0.0409    -2.5194     2.0317 C.3     
  27 C27            0.8137    -2.4473     3.2709 C.ar    
  28 C28            1.5985    -1.3318     3.5024 C.ar    
  29 C29            0.8056    -3.4945     4.1750 C.ar    
  30 C30            1.5854    -3.4345     5.3117 C.ar    
  31 C31            2.3832    -2.3145     5.5484 C.ar    
  32 C32            2.3832    -1.2596     4.6350 C.ar    
  33 C33            3.2211    -2.2436     6.7641 C.2     
  34 Cl34           3.6716    -9.4724    -3.0319 Cl      
  35 Cl35           0.8749    -6.9531     0.8408 Cl      
  36 C36            4.5424    -2.2251     6.6583 C.2     
  37 C37            5.3984    -2.2933     7.8967 C.3     
  38 C38            6.3142    -3.5164     7.8169 C.3     
  39 C39            7.2953    -3.3441     6.6557 C.3     
  40 C40            2.5732    -2.1923     8.1237 C.3     
  41 C41            7.0932    -3.6565     9.1263 C.3     
  42 H42           -0.6642     1.7559    -0.2709 H       
  43 H43           -0.6919    -0.7016    -0.1694 H       
  44 H44            3.5803    -0.7480    -0.0335 H       
  45 H45            1.4761     2.9686    -0.2472 H       
  46 H46            3.9450     3.2261    -1.7304 H       
  47 H47            3.5236     3.9417    -0.1618 H       
  48 H48            7.2752     2.7340     0.3922 H       
  49 H49            2.6635    -2.8606    -1.7544 H       
  50 H50            3.3311    -4.6548    -2.6748 H       
  51 H51            4.1058    -6.7447    -3.7160 H       
  52 H52            2.0416    -9.0092    -0.7452 H       
  53 H53           -0.4126    -1.5241     1.7884 H       
  54 H54           -0.8829    -3.1883     2.2095 H       
  55 H55            1.5973    -0.5159     2.7949 H       
  56 H56            0.1874    -4.3606     3.9907 H       
  57 H57            1.5779    -4.2525     6.0168 H       
  58 H58            2.9988    -0.3902     4.8124 H       
  59 H59            5.0053    -2.1612     5.6847 H       
  60 H60            6.0041    -1.3901     7.9699 H       
  61 H61            4.7595    -2.3745     8.7760 H       
  62 H62            5.7126    -4.4108     7.6547 H       
  63 H63            7.9477    -4.2154     6.5988 H       
  64 H64            6.7403    -3.2443     5.7229 H       
  65 H65            7.8969    -2.4497     6.8179 H       
  66 H66            2.5210    -3.1985     8.5395 H       
  67 H67            3.1634    -1.5566     8.7837 H       
  68 H68            1.5665    -1.7847     8.0314 H       
  69 H69            6.3943    -3.7792     9.9536 H       
  70 H70            7.7456    -4.5278     9.0695 H       
  71 H71            7.6948    -2.7621     9.2886 H       
@<TRIPOS>BOND
   1    1    2 ar
   2    1    6 ar
   3    1   42 1
   4    2    3 ar
   5    2   43 1
   6    3    4 ar
   7    3   15 1
   8    4    5 ar
   9    4   44 1
  10    5    6 ar
  11    5    7 1
  12    6   45 1
  13    7    8 1
  14    7   11 am
  15    8    9 1
  16    8   46 1
  17    8   47 1
  18    9   10 am
  19    9   12 2
  20   10   11 am
  21   10   48 1
  22   11   13 2
  23   11   14 2
  24   15   16 1
  25   15   17 1
  26   16   19 2
  27   16   49 1
  28   17   18 2
  29   17   26 1
  30   18   19 1
  31   19   20 1
  32   20   21 ar
  33   20   22 ar
  34   21   35 1
  35   21   25 ar
  36   22   23 ar
  37   22   50 1
  38   23   24 ar
  39   23   51 1
  40   24   25 ar
  41   24   34 1
  42   25   52 1
  43   26   27 1
  44   26   53 1
  45   26   54 1
  46   27   28 ar
  47   27   29 ar
  48   28   32 ar
  49   28   55 1
  50   29   30 ar
  51   29   56 1
  52   30   31 ar
  53   30   57 1
  54   31   32 ar
  55   31   33 1
  56   32   58 1
  57   33   36 2
  58   33   40 1
  59   36   37 1
  60   36   59 1
  61   37   38 1
  62   37   60 1
  63   37   61 1
  64   38   39 1
  65   38   41 1
  66   38   62 1
  67   39   63 1
  68   39   64 1
  69   39   65 1
  70   40   66 1
  71   40   67 1
  72   40   68 1
  73   41   69 1
  74   41   70 1
  75   41   71 1

#	End of record

