#	Name: ASD01814859
#	Creating user name:	WinNT
#	Creation time:	15. 06. 2019 19:33

#	Modifying user name:	WinNT
#	Modification time:	15. 06. 2019 19:33

#	Program:	/corina/corina34_cracker 3.40 0067  02.08.2006

@<TRIPOS>MOLECULE
ASD01814859
  56   59    0    0    0
SMALL
NO_CHARGES


@<TRIPOS>ATOM
   1 C1            -0.6243     0.3997     0.3238 C.2     
   2 C2            -0.4389    -0.9883     0.2694 C.2     
   3 C3             0.8265    -1.4950     0.2134 C.2     
   4 C4             1.9226    -0.6165     0.2112 C.2     
   5 N5             1.7124     0.7347     0.2654 N.am    
   6 C6             0.4432     1.2296     0.3208 C.2     
   7 C7             3.2241    -1.1347     0.1537 C.2     
   8 C8             4.2959    -0.2900     0.1515 C.2     
   9 C9             4.0760     1.0989     0.2068 C.2     
  10 C10            2.7554     1.5892     0.2643 C.2     
  11 O11            2.5555     2.7912     0.3120 O.2     
  12 C12            5.2091     2.0268     0.2061 C.2     
  13 O13            4.9915     3.3570     0.2593 O.3     
  14 O14            6.3463     1.5979     0.1576 O.2     
  15 C15            3.4394    -2.6251     0.0950 C.3     
  16 N16            3.5873    -3.0436    -1.3054 N.3     
  17 C17            4.0324    -4.4414    -1.3931 C.3     
  18 C18            4.0974    -4.8620    -2.8632 C.3     
  19 N19            5.0187    -3.9727    -3.5842 N.3     
  20 C20            4.5735    -2.5749    -3.4965 C.3     
  21 C21            4.5086    -2.1543    -2.0264 C.3     
  22 H22            5.0207    -4.5372    -0.9434 H       
  23 C23            5.1596    -4.3716    -4.9188 C.ar    
  24 C24            5.9906    -3.6583    -5.7726 C.ar    
  25 C25            4.4727    -5.4838    -5.3872 C.ar    
  26 C26            4.6117    -5.8772    -6.7036 C.ar    
  27 C27            5.4379    -5.1604    -7.5590 C.ar    
  28 C28            6.1295    -4.0517    -7.0890 C.ar    
  29 H29            4.4551    -5.8893    -2.9321 H       
  30 H30            3.1037    -4.7922    -3.3057 H       
  31 N31            5.5792    -5.5595    -8.8934 N.am    
  32 S32            4.3619    -5.2689    -9.9779 S.o2    
  33 O33            4.8569    -5.7835   -11.2065 O.2     
  34 O34            3.2061    -5.8229    -9.3642 O.2     
  35 C35            4.2404    -3.4604   -10.0481 C.3     
  36 H36           -1.6233     0.8081     0.3638 H       
  37 H37           -1.2912    -1.6517     0.2722 H       
  38 H38            0.9842    -2.5626     0.1714 H       
  39 H39            0.2886     2.2976     0.3633 H       
  40 H40            5.3010    -0.6827     0.1081 H       
  41 H41            5.7707     3.9297     0.2566 H       
  42 H42            4.3419    -2.8839     0.6487 H       
  43 H43            2.5831    -3.1337     0.5377 H       
  44 H44            3.3275    -5.0815    -0.8625 H       
  45 H45            5.2784    -1.9348    -4.0271 H       
  46 H46            3.5852    -2.4791    -3.9462 H       
  47 H47            4.1509    -1.1270    -1.9575 H       
  48 H48            5.5023    -2.2241    -1.5839 H       
  49 H49            6.5279    -2.7957    -5.4072 H       
  50 H50            3.8302    -6.0413    -4.7219 H       
  51 H51            4.0781    -6.7427    -7.0677 H       
  52 H52            6.7721    -3.4942    -7.7542 H       
  53 H53            6.3901    -6.0063    -9.1827 H       
  54 H54            5.2152    -3.0401   -10.2955 H       
  55 H55            3.5170    -3.1742   -10.8115 H       
  56 H56            3.9161    -3.0801    -9.0794 H       
@<TRIPOS>BOND
   1    1    2 1
   2    1    6 2
   3    1   36 1
   4    2    3 2
   5    2   37 1
   6    3    4 1
   7    3   38 1
   8    4    5 1
   9    4    7 2
  10    5    6 1
  11    5   10 am
  12    6   39 1
  13    7   15 1
  14    7    8 1
  15    8    9 2
  16    8   40 1
  17    9   10 1
  18    9   12 1
  19   10   11 2
  20   12   13 1
  21   12   14 2
  22   13   41 1
  23   15   16 1
  24   15   42 1
  25   15   43 1
  26   16   17 1
  27   16   21 1
  28   17   18 1
  29   17   22 1
  30   17   44 1
  31   18   19 1
  32   18   29 1
  33   18   30 1
  34   19   20 1
  35   19   23 1
  36   20   21 1
  37   20   45 1
  38   20   46 1
  39   21   47 1
  40   21   48 1
  41   23   24 ar
  42   23   25 ar
  43   24   28 ar
  44   24   49 1
  45   25   26 ar
  46   25   50 1
  47   26   27 ar
  48   26   51 1
  49   27   28 ar
  50   27   31 1
  51   28   52 1
  52   31   32 am
  53   31   53 1
  54   32   33 2
  55   32   34 2
  56   32   35 1
  57   35   54 1
  58   35   55 1
  59   35   56 1

#	End of record

