#	Name: ASD02508061
#	Creating user name:	WinNT
#	Creation time:	15. 06. 2019 20:23

#	Modifying user name:	WinNT
#	Modification time:	15. 06. 2019 20:23

#	Program:	/corina/corina34_cracker 3.40 0067  02.08.2006

@<TRIPOS>MOLECULE
ASD02508061
  27   29    0    0    0
SMALL
NO_CHARGES


@<TRIPOS>ATOM
   1 C1            -0.0180     1.3792     0.0155 C.ar    
   2 C2             0.0058    -0.0021     0.1255 C.ar    
   3 C3             1.1735     2.0929    -0.1124 C.ar    
   4 C4             2.3829     1.4170    -0.1294 C.ar    
   5 C5             2.4033     0.0344    -0.0191 C.ar    
   6 C6             1.2133    -0.6738     0.1083 C.ar    
   7 N7            -1.0502     2.3205    -0.0051 N.am    
   8 C8            -0.4853     3.5374    -0.1333 C.2     
   9 O9             0.8489     3.4065    -0.1992 O.3     
  10 N10            3.6245    -0.6495    -0.0361 N.am    
  11 S11            4.9610     0.0248     0.6719 S.o2    
  12 C12            4.5822     0.2680     2.3754 C.2     
  13 S13            3.8601     1.7200     3.0563 S.3     
  14 O14           -1.0908     4.5906    -0.1857 O.2     
  15 O15            5.9815    -0.9630     0.6248 O.2     
  16 O16            5.1057     1.3194     0.1042 O.2     
  17 Cl17           1.2446    -2.4041     0.2454 Cl      
  18 C18            4.7939    -0.6233     3.3451 C.2     
  19 C19            4.4149    -0.2095     4.6105 C.2     
  20 C20            3.8936     1.0169     4.6682 C.2     
  21 H21           -0.9180    -0.5527     0.2248 H       
  22 H22            3.3080     1.9655    -0.2286 H       
  23 H23           -1.9996     2.1326     0.0603 H       
  24 H24            3.6878    -1.5184    -0.4625 H       
  25 H25            5.2279    -1.5942     3.1570 H       
  26 H26            4.5307    -0.8332     5.4845 H       
  27 H27            3.5440     1.5032     5.5669 H       
@<TRIPOS>BOND
   1    1    2 ar
   2    1    3 ar
   3    1    7 1
   4    2    6 ar
   5    2   21 1
   6    3    4 ar
   7    3    9 1
   8    4    5 ar
   9    4   22 1
  10    5    6 ar
  11    5   10 1
  12    6   17 1
  13    7    8 am
  14    7   23 1
  15    8    9 1
  16    8   14 2
  17   10   11 am
  18   10   24 1
  19   11   12 1
  20   11   15 2
  21   11   16 2
  22   12   13 1
  23   12   18 2
  24   13   20 1
  25   18   19 1
  26   18   25 1
  27   19   20 2
  28   19   26 1
  29   20   27 1

#	End of record

