#	Name: ASD05313149
#	Creating user name:	WinNT
#	Creation time:	15. 06. 2019 20:58

#	Modifying user name:	WinNT
#	Modification time:	15. 06. 2019 20:58

#	Program:	/corina/corina34_cracker 3.40 0067  02.08.2006

@<TRIPOS>MOLECULE
ASD05313149
  35   38    0    0    0
SMALL
NO_CHARGES


@<TRIPOS>ATOM
   1 C1            -0.0726     0.8207     1.0200 C.2     
   2 C2             0.1129    -0.6163     0.5941 C.3     
   3 N3             0.9315     1.7337     1.0460 N.pl3   
   4 N4             1.4565    -0.7170    -0.0065 N.am    
   5 C5             2.5709    -0.0358     0.6697 C.3     
   6 C6             2.3181     1.4766     0.6612 C.3     
   7 N7            -0.9052     2.6449     1.7017 N.2     
   8 N8            -1.1574     1.4126     1.4210 N.2     
   9 C9             0.3728     2.8955     1.4892 C.2     
  10 S10            0.3090     5.6658     2.2694 S.3     
  11 C11            1.0629     4.1810     1.6942 C.2     
  12 N12            2.3296     4.4026     1.4790 N.2     
  13 C13            2.7719     5.6142     1.7175 C.2     
  14 C14            1.8623     6.4914     2.1587 C.2     
  15 C15            1.6572    -1.4138    -1.1426 C.2     
  16 O16            2.7494    -1.4043    -1.6766 O.2     
  17 C17            0.5508    -2.1887    -1.7386 C.ar    
  18 C18            0.3195    -2.1358    -3.1164 C.ar    
  19 C19           -0.7160    -2.8628    -3.6673 C.ar    
  20 C20           -1.5252    -3.6438    -2.8571 C.ar    
  21 C21           -1.3000    -3.6991    -1.4899 C.ar    
  22 C22           -0.2653    -2.9819    -0.9291 C.ar    
  23 F23           -2.5376    -4.3536    -3.4015 F       
  24 Cl24           1.3322    -1.1574    -4.1317 Cl      
  25 H25            0.0428    -1.2732     1.4611 H       
  26 H26           -0.6446    -0.8871    -0.1413 H       
  27 H27            2.6416    -0.3873     1.6991 H       
  28 H28            3.5018    -0.2523     0.1456 H       
  29 H29            2.4974     1.8701    -0.3393 H       
  30 H30            2.9888     1.9620     1.3702 H       
  31 H31            3.8061     5.8870     1.5676 H       
  32 H32            2.0479     7.5266     2.4039 H       
  33 H33           -0.8964    -2.8229    -4.7314 H       
  34 H34           -1.9343    -4.3089    -0.8636 H       
  35 H35           -0.0883    -3.0300     0.1353 H       
@<TRIPOS>BOND
   1    1    2 1
   2    1    3 1
   3    1    8 2
   4    2    4 1
   5    2   25 1
   6    2   26 1
   7    3    6 1
   8    3    9 1
   9    4    5 1
  10    4   15 am
  11    5    6 1
  12    5   27 1
  13    5   28 1
  14    6   29 1
  15    6   30 1
  16    7    8 1
  17    7    9 2
  18    9   11 1
  19   10   11 1
  20   10   14 1
  21   11   12 2
  22   12   13 1
  23   13   14 2
  24   13   31 1
  25   14   32 1
  26   15   16 2
  27   15   17 1
  28   17   18 ar
  29   17   22 ar
  30   18   19 ar
  31   18   24 1
  32   19   20 ar
  33   19   33 1
  34   20   21 ar
  35   20   23 1
  36   21   22 ar
  37   21   34 1
  38   22   35 1

#	End of record

