#	Name: ASD01911219
#	Creating user name:	WinNT
#	Creation time:	15. 06. 2019 19:57

#	Modifying user name:	WinNT
#	Modification time:	15. 06. 2019 19:57

#	Program:	/corina/corina34_cracker 3.40 0067  02.08.2006

@<TRIPOS>MOLECULE
ASD01911219
  49   51    0    0    0
SMALL
NO_CHARGES


@<TRIPOS>ATOM
   1 C1            -1.7357    -1.7685     1.8781 C.3     
   2 C2            -2.0438    -0.4713     1.1275 C.3     
   3 N3            -1.3849    -0.4958    -0.1807 N.am    
   4 C4            -1.9835    -1.1012    -1.2256 C.2     
   5 O5            -3.0360    -1.6891    -1.0662 O.2     
   6 C6            -1.3623    -1.0506    -2.5617 C.2     
   7 N7            -0.1828    -0.5540    -2.8657 N.2     
   8 N8             0.0735    -0.6596    -4.1188 N.pl3   
   9 C9            -0.9561    -1.2615    -4.7902 C.ar    
  10 C10           -1.9335    -1.5502    -3.8183 C.ar    
  11 C11           -3.1217    -2.1757    -4.1951 C.ar    
  12 C12           -3.2947    -2.4901    -5.5172 C.ar    
  13 C13           -2.2907    -2.1792    -6.4339 C.ar    
  14 N14           -1.1710    -1.5904    -6.0577 N.ar    
  15 O15           -2.4671    -2.4931    -7.7417 O.3     
  16 C16           -1.4083    -2.1530    -8.6391 C.3     
  17 C17           -1.7799    -2.5749   -10.0373 C.ar    
  18 C18           -2.9971    -3.1882   -10.2648 C.ar    
  19 C19           -3.3294    -3.5725   -11.5551 C.ar    
  20 C20           -2.4208    -3.3242   -12.5722 C.ar    
  21 C21           -1.2222    -2.7062   -12.2685 C.ar    
  22 N22           -0.9419    -2.3496   -11.0304 N.ar    
  23 C23           -0.2267    -2.4318   -13.3661 C.3     
  24 C24            1.3107    -0.1943    -4.7504 C.3     
  25 C25           -0.0753     0.1377    -0.3533 C.3     
  26 C26            1.0235    -0.9191    -0.2240 C.3     
  27 H27           -2.2259    -1.7503     2.8514 H       
  28 H28           -2.1032    -2.6177     1.3020 H       
  29 H29           -0.6584    -1.8616     2.0155 H       
  30 H30           -3.1211    -0.3782     0.9901 H       
  31 H31           -1.6762     0.3779     1.7036 H       
  32 H32           -3.8837    -2.4061    -3.4652 H       
  33 H33           -4.2015    -2.9753    -5.8470 H       
  34 H34           -1.2445    -1.0756    -8.6160 H       
  35 H35           -0.4957    -2.6658    -8.3353 H       
  36 H36           -3.6808    -3.3663    -9.4479 H       
  37 H37           -4.2736    -4.0541   -11.7626 H       
  38 H38           -2.6463    -3.6103   -13.5889 H       
  39 H39           -0.4189    -1.4475   -13.7932 H       
  40 H40            0.7829    -2.4591   -12.9561 H       
  41 H41           -0.3241    -3.1902   -14.1429 H       
  42 H42            2.0473    -0.9978    -4.7422 H       
  43 H43            1.1050     0.0994    -5.7798 H       
  44 H44            1.7005     0.6615    -4.1994 H       
  45 H45           -0.0218     0.5987    -1.3396 H       
  46 H46            0.0628     0.9010     0.4125 H       
  47 H47            1.9979    -0.4477    -0.3524 H       
  48 H48            0.9700    -1.3800     0.7623 H       
  49 H49            0.8854    -1.6824    -0.9898 H       
@<TRIPOS>BOND
   1    1    2 1
   2    1   27 1
   3    1   28 1
   4    1   29 1
   5    2    3 1
   6    2   30 1
   7    2   31 1
   8    3    4 am
   9    3   25 1
  10    4    5 2
  11    4    6 1
  12    6    7 2
  13    6   10 1
  14    7    8 1
  15    8    9 1
  16    8   24 1
  17    9   10 ar
  18    9   14 ar
  19   10   11 ar
  20   11   12 ar
  21   11   32 1
  22   12   13 ar
  23   12   33 1
  24   13   14 ar
  25   13   15 1
  26   15   16 1
  27   16   17 1
  28   16   34 1
  29   16   35 1
  30   17   18 ar
  31   17   22 ar
  32   18   19 ar
  33   18   36 1
  34   19   20 ar
  35   19   37 1
  36   20   21 ar
  37   20   38 1
  38   21   22 ar
  39   21   23 1
  40   23   39 1
  41   23   40 1
  42   23   41 1
  43   24   42 1
  44   24   43 1
  45   24   44 1
  46   25   26 1
  47   25   45 1
  48   25   46 1
  49   26   47 1
  50   26   48 1
  51   26   49 1

#	End of record

