#	Name: ASD05720010
#	Creating user name:	WinNT
#	Creation time:	15. 06. 2019 21:01

#	Modifying user name:	WinNT
#	Modification time:	15. 06. 2019 21:01

#	Program:	/corina/corina34_cracker 3.40 0067  02.08.2006

@<TRIPOS>MOLECULE
ASD05720010
  25   25    0    0    0
SMALL
NO_CHARGES


@<TRIPOS>ATOM
   1 C1            -0.0180     1.4748     0.0102 C.2     
   2 C2             0.0021    -0.0041     0.0020 C.ar    
   3 C3             1.2198    -0.6892    -0.0133 C.ar    
   4 C4             1.2311    -2.0697    -0.0209 C.ar    
   5 C5             0.0394    -2.7741    -0.0138 C.ar    
   6 C6            -1.1704    -2.1000     0.0014 C.ar    
   7 C7            -1.1952    -0.7213     0.0154 C.ar    
   8 O8             1.0279     2.0978     0.0035 O.2     
   9 N9            -1.1930     2.1321     0.0193 N.2     
  10 C10           -1.2108     3.4437     0.0265 C.2     
  11 N11           -2.3894     4.1029     0.0357 N.pl3   
  12 C12           -3.6480     3.3532     0.0376 C.3     
  13 C13           -2.4092     5.5678     0.0437 C.3     
  14 Cl14           2.7147     0.1934    -0.0233 Cl      
  15 Br15           0.0634    -4.6649    -0.0255 Br      
  16 H16            2.1712    -2.6011    -0.0327 H       
  17 H17           -2.0965    -2.6556     0.0069 H       
  18 H18           -2.1395    -0.1974     0.0317 H       
  19 H19           -0.2829     3.9963     0.0251 H       
  20 H20           -3.9553     3.1617     1.0657 H       
  21 H21           -4.4180     3.9347    -0.4695 H       
  22 H22           -3.5072     2.4055    -0.4821 H       
  23 H23           -1.3866     5.9450     0.0409 H       
  24 H24           -2.9322     5.9289    -0.8418 H       
  25 H25           -2.9237     5.9192     0.9381 H       
@<TRIPOS>BOND
   1    1    2 1
   2    1    8 2
   3    1    9 1
   4    2    3 ar
   5    2    7 ar
   6    3    4 ar
   7    3   14 1
   8    4    5 ar
   9    4   16 1
  10    5    6 ar
  11    5   15 1
  12    6    7 ar
  13    6   17 1
  14    7   18 1
  15    9   10 2
  16   10   11 1
  17   10   19 1
  18   11   12 1
  19   11   13 1
  20   12   20 1
  21   12   21 1
  22   12   22 1
  23   13   23 1
  24   13   24 1
  25   13   25 1

#	End of record

