#	Name: ASD02508047
#	Creating user name:	WinNT
#	Creation time:	15. 06. 2019 20:23

#	Modifying user name:	WinNT
#	Modification time:	15. 06. 2019 20:23

#	Program:	/corina/corina34_cracker 3.40 0067  02.08.2006

@<TRIPOS>MOLECULE
ASD02508047
  33   35    0    0    0
SMALL
NO_CHARGES


@<TRIPOS>ATOM
   1 C1            -0.0181     1.3795     0.0158 C.ar    
   2 C2             0.0058    -0.0023     0.1257 C.ar    
   3 C3             1.1731     2.0930    -0.1121 C.ar    
   4 C4             2.3829     1.4169    -0.1291 C.ar    
   5 C5             2.4033     0.0347    -0.0189 C.ar    
   6 C6             1.2129    -0.6738     0.1085 C.ar    
   7 N7            -1.0505     2.3206    -0.0047 N.am    
   8 C8            -0.4856     3.5375    -0.1334 C.2     
   9 O9             0.8485     3.4066    -0.1992 O.3     
  10 N10            3.6244    -0.6492    -0.0360 N.am    
  11 S11            4.9610     0.0252     0.6720 S.o2    
  12 C12            4.5822     0.2684     2.3755 C.2     
  13 S13            3.8601     1.7204     3.0564 S.3     
  14 C14           -2.4842     2.0367     0.0954 C.3     
  15 O15           -1.0913     4.5907    -0.1865 O.2     
  16 O16            5.9815    -0.9626     0.6249 O.2     
  17 O17            5.1057     1.3198     0.1043 O.2     
  18 Cl18           1.2444    -2.4039     0.2472 Cl      
  19 C19           -2.9061     2.0539     1.5660 C.3     
  20 C20            4.7939    -0.6228     3.3452 C.2     
  21 C21            4.4149    -0.2091     4.6106 C.2     
  22 C22            3.8935     1.0174     4.6682 C.2     
  23 H23           -0.9180    -0.5529     0.2251 H       
  24 H24            3.3079     1.9655    -0.2283 H       
  25 H25            3.6878    -1.5180    -0.4625 H       
  26 H26           -3.0438     2.7952    -0.4520 H       
  27 H27           -2.6908     1.0549    -0.3304 H       
  28 H28           -3.9728     1.8427     1.6405 H       
  29 H29           -2.3464     1.2955     2.1134 H       
  30 H30           -2.6995     3.0358     1.9918 H       
  31 H31            5.2278    -1.5938     3.1572 H       
  32 H32            4.5306    -0.8327     5.4846 H       
  33 H33            3.5440     1.5037     5.5670 H       
@<TRIPOS>BOND
   1    1    2 ar
   2    1    3 ar
   3    1    7 1
   4    2    6 ar
   5    2   23 1
   6    3    4 ar
   7    3    9 1
   8    4    5 ar
   9    4   24 1
  10    5    6 ar
  11    5   10 1
  12    6   18 1
  13    7    8 am
  14    7   14 1
  15    8    9 1
  16    8   15 2
  17   10   11 am
  18   10   25 1
  19   11   12 1
  20   11   16 2
  21   11   17 2
  22   12   13 1
  23   12   20 2
  24   13   22 1
  25   14   19 1
  26   14   26 1
  27   14   27 1
  28   19   28 1
  29   19   29 1
  30   19   30 1
  31   20   21 1
  32   20   31 1
  33   21   22 2
  34   21   32 1
  35   22   33 1

#	End of record

