#	Name: ASD01410678
#	Creating user name:	WinNT
#	Creation time:	15. 06. 2019 19:18

#	Modifying user name:	WinNT
#	Modification time:	15. 06. 2019 19:18

#	Program:	/corina/corina34_cracker 3.40 0067  02.08.2006

@<TRIPOS>MOLECULE
ASD01410678
  77   80    0    0    0
SMALL
NO_CHARGES


@<TRIPOS>ATOM
   1 C1             0.7373     0.2794     3.5149 C.ar    
   2 C2             1.5690    -0.1068     4.5567 C.ar    
   3 C3             2.8527    -0.5309     4.2747 C.ar    
   4 N4             3.2935    -0.5723     3.0320 N.ar    
   5 C5             2.5309    -0.2123     2.0126 C.ar    
   6 C6             1.2292     0.2247     2.2223 C.ar    
   7 O7             3.0249    -0.2705     0.7504 O.3     
   8 C8             4.3322    -0.6089     0.5916 C.ar    
   9 C9             4.7572    -1.8953     0.9014 C.ar    
  10 C10            6.0819    -2.2494     0.7439 C.ar    
  11 C11            7.0003    -1.3207     0.2745 C.ar    
  12 C12            6.5776    -0.0201    -0.0401 C.ar    
  13 C13            5.2335     0.3265     0.1170 C.ar    
  14 N14            8.3383    -1.6787     0.1165 N.am    
  15 C15            8.7587    -2.2194    -1.0442 C.2     
  16 C16            9.2875    -1.4670     1.2122 C.3     
  17 O17            9.9079    -2.5895    -1.1597 O.2     
  18 C18            7.8008    -2.3642    -2.1986 C.3     
  19 C19            8.3082    -3.4505    -3.1491 C.3     
  20 C20            9.6896    -3.0604    -3.6786 C.3     
  21 C21            9.5912    -1.7310    -4.4295 C.3     
  22 C22            9.0839    -0.6447    -3.4790 C.3     
  23 C23            7.7025    -1.0348    -2.9495 C.3     
  24 C24            8.6248    -0.6271     2.3059 C.3     
  25 C25            9.7074    -2.8194     1.7916 C.3     
  26 C26            1.0768    -0.0634     5.9804 C.3     
  27 O27           10.4595    -3.5429     0.8155 O.3     
  28 C28           10.9025    -4.8274     1.2581 C.3     
  29 O29            8.3638     0.6858     1.8059 O.3     
  30 C30            7.8526     1.5904     2.7870 C.3     
  31 C31            0.4442    -1.3848     6.3337 C.2     
  32 C32           10.9727    -1.3409    -4.9589 C.3     
  33 C33            1.0704    -2.4391     6.8651 C.2     
  34 S34           -1.2530    -1.8100     6.1262 S.3     
  35 C35           -0.9504    -3.3658     6.7674 C.2     
  36 N36            0.2952    -3.4823     7.0832 N.2     
  37 C37            7.5456     0.9732    -0.5388 C.2     
  38 O38            8.7023     0.6526    -0.7280 O.2     
  39 O39            7.1478     2.2370    -0.7850 O.3     
  40 C40            0.3642     0.6338     1.0581 C.3     
  41 F41           -0.8923     1.0312     1.5277 F       
  42 F42            0.9672     1.6989     0.3806 F       
  43 F43            0.2145    -0.4492     0.1851 F       
  44 H44           -0.2723     0.6109     3.7081 H       
  45 H45            3.5040    -0.8322     5.0818 H       
  46 H46            4.0470    -2.6219     1.2678 H       
  47 H47            6.4045    -3.2510     0.9868 H       
  48 H48            4.9006     1.3255    -0.1231 H       
  49 H49           10.1667    -0.9444     0.8354 H       
  50 H50            6.8167    -2.6421    -1.8214 H       
  51 H51            8.3782    -4.3976    -2.6142 H       
  52 H52            7.6153    -3.5552    -3.9841 H       
  53 H53           10.3824    -2.9557    -2.8436 H       
  54 H54           10.0510    -3.8343    -4.3557 H       
  55 H55            8.8984    -1.8357    -5.2644 H       
  56 H56            9.7767    -0.5400    -2.6440 H       
  57 H57            9.0138     0.3024    -4.0139 H       
  58 H58            7.0096    -1.1395    -3.7845 H       
  59 H59            7.3410    -0.2609    -2.2723 H       
  60 H60            7.6869    -1.0951     2.6052 H       
  61 H61            9.2896    -0.5624     3.1673 H       
  62 H62           10.3210    -2.6600     2.6782 H       
  63 H63            8.8192    -3.3902     2.0622 H       
  64 H64            1.9159     0.1281     6.6492 H       
  65 H65            0.3392     0.7322     6.0857 H       
  66 H66           11.4654    -5.3123     0.4606 H       
  67 H67           11.5410    -4.7097     2.1337 H       
  68 H68           10.0391    -5.4399     1.5177 H       
  69 H69            6.8716     1.2502     3.1188 H       
  70 H70            8.5323     1.6251     3.6384 H       
  71 H71            7.7639     2.5859     2.3521 H       
  72 H72           11.3341    -2.1148    -5.6361 H       
  73 H73           10.9026    -0.3937    -5.4939 H       
  74 H74           11.6655    -1.2361    -4.1240 H       
  75 H75            2.1253    -2.4366     7.0965 H       
  76 H76           -1.6950    -4.1379     6.8938 H       
  77 H77            7.8184     2.8527    -1.1109 H       
@<TRIPOS>BOND
   1    1    2 ar
   2    1    6 ar
   3    1   44 1
   4    2    3 ar
   5    2   26 1
   6    3    4 ar
   7    3   45 1
   8    4    5 ar
   9    5    6 ar
  10    5    7 1
  11    6   40 1
  12    7    8 1
  13    8    9 ar
  14    8   13 ar
  15    9   10 ar
  16    9   46 1
  17   10   11 ar
  18   10   47 1
  19   11   12 ar
  20   11   14 1
  21   12   13 ar
  22   12   37 1
  23   13   48 1
  24   14   15 am
  25   14   16 1
  26   15   17 2
  27   15   18 1
  28   16   24 1
  29   16   25 1
  30   16   49 1
  31   18   19 1
  32   18   23 1
  33   18   50 1
  34   19   20 1
  35   19   51 1
  36   19   52 1
  37   20   21 1
  38   20   53 1
  39   20   54 1
  40   21   22 1
  41   21   32 1
  42   21   55 1
  43   22   23 1
  44   22   56 1
  45   22   57 1
  46   23   58 1
  47   23   59 1
  48   24   29 1
  49   24   60 1
  50   24   61 1
  51   25   27 1
  52   25   62 1
  53   25   63 1
  54   26   31 1
  55   26   64 1
  56   26   65 1
  57   27   28 1
  58   28   66 1
  59   28   67 1
  60   28   68 1
  61   29   30 1
  62   30   69 1
  63   30   70 1
  64   30   71 1
  65   31   34 1
  66   31   33 2
  67   32   72 1
  68   32   73 1
  69   32   74 1
  70   33   36 1
  71   33   75 1
  72   34   35 1
  73   35   36 2
  74   35   76 1
  75   37   38 2
  76   37   39 1
  77   39   77 1
  78   40   41 1
  79   40   42 1
  80   40   43 1

#	End of record

