#	Name: ASD04570040
#	Creating user name:	WinNT
#	Creation time:	15. 06. 2019 20:49

#	Modifying user name:	WinNT
#	Modification time:	15. 06. 2019 20:49

#	Program:	/corina/corina34_cracker 3.40 0067  02.08.2006

@<TRIPOS>MOLECULE
ASD04570040
 331  331    0    0    0
SMALL
NO_CHARGES


@<TRIPOS>ATOM
   1 C1            -0.0187     1.5258     0.0104 C.3     
   2 C2             0.0021    -0.0041     0.0020 C.3     
   3 C3            -1.4333    -0.5336     0.0129 C.3     
   4 C4            -1.4126    -2.0635     0.0045 C.3     
   5 C5            -2.8479    -2.5931     0.0153 C.3     
   6 C6            -2.8272    -4.1229     0.0069 C.3     
   7 C7            -4.2626    -4.6525     0.0178 C.3     
   8 C8            -4.2418    -6.1823     0.0094 C.3     
   9 C9            -5.6772    -6.7119     0.0202 C.3     
  10 C10           -5.6565    -8.2417     0.0118 C.3     
  11 C11           -7.0918    -8.7713     0.0227 C.3     
  12 C12           -7.0711   -10.3012     0.0143 C.3     
  13 C13           -8.5065   -10.8307     0.0251 C.3     
  14 C14           -8.4857   -12.3606     0.0167 C.3     
  15 C15           -9.8995   -12.8822     0.0274 C.2     
  16 N16          -10.1278   -14.2105     0.0224 N.am    
  17 O17          -10.8319   -12.1067     0.0405 O.2     
  18 C18          -11.5022   -14.7176     0.0328 C.3     
  19 C19          -11.5336   -16.0963    -0.5748 C.2     
  20 N20          -12.7005   -16.7638    -0.6713 N.am    
  21 O21          -10.5088   -16.6052    -0.9769 O.2     
  22 C22          -12.7310   -18.1041    -1.2620 C.3     
  23 C23          -14.1448   -18.6257    -1.2513 C.2     
  24 N24          -14.4156   -19.8487    -1.7486 N.am    
  25 O25          -15.0389   -17.9449    -0.7952 O.2     
  26 C26          -15.7900   -20.3558    -1.7382 C.3     
  27 C27          -15.9556   -21.3807    -2.8305 C.2     
  28 O28          -15.0179   -21.6600    -3.5472 O.2     
  29 N29          -17.1457   -21.9868    -3.0111 N.am    
  30 C30          -16.0848   -21.0025    -0.3832 C.3     
  31 C31          -16.0395   -19.9512     0.6956 C.ar    
  32 C32          -17.1883   -19.2607     1.0350 C.ar    
  33 C33          -17.3067   -22.9831    -4.0731 C.3     
  34 C34          -17.6323   -22.2763    -5.3904 C.3     
  35 C35          -18.4304   -23.9215    -3.7154 C.2     
  36 O36          -19.0370   -23.7727    -2.6758 O.2     
  37 N37          -18.7612   -24.9260    -4.5508 N.am    
  38 C38          -16.4394   -21.4187    -5.8174 C.3     
  39 C39          -16.7601   -20.7225    -7.1149 C.2     
  40 N40          -15.8505   -19.9079    -7.6853 N.am    
  41 C41          -19.8535   -25.8382    -4.2031 C.3     
  42 C42          -21.1862   -25.2292    -4.6434 C.3     
  43 C43          -19.6484   -27.1572    -4.9026 C.2     
  44 O44          -18.6847   -27.3193    -5.6208 O.2     
  45 N45          -20.5359   -28.1567    -4.7300 N.am    
  46 C46          -20.3365   -29.4389    -5.4100 C.3     
  47 C47          -21.6852   -30.1412    -5.5798 C.3     
  48 C48          -19.4045   -30.3194    -4.5752 C.3     
  49 C49          -22.5734   -29.3201    -6.5166 C.3     
  50 C50          -23.9221   -30.0224    -6.6864 C.3     
  51 C51          -17.1494   -18.2966     2.0236 C.ar    
  52 C52          -15.9564   -18.0214     2.6760 C.ar    
  53 C53          -14.8051   -18.7156     2.3336 C.ar    
  54 C54          -14.8505   -19.6828     1.3482 C.ar    
  55 O55          -15.9155   -17.0731     3.6486 O.3     
  56 O56          -17.8368   -20.8952    -7.6458 O.2     
  57 C57          -24.8104   -29.2013    -7.6232 C.3     
  58 N58          -26.1052   -29.8756    -7.7862 N.3     
  59 C59            1.4167     2.0553    -0.0004 C.3     
  60 H60           -9.3821   -14.8307     0.0120 H       
  61 C61          -21.4536   -23.9536    -3.8420 C.3     
  62 C62          -22.7863   -23.3446    -4.2823 C.3     
  63 C63          -23.0536   -22.0690    -3.4809 C.3     
  64 N64          -24.3332   -21.4843    -3.9037 N.3     
  65 C65          -12.0105   -14.7839     1.4744 C.3     
  66 O66          -11.2470   -15.7459     2.2049 O.3     
  67 H67           -0.5459     1.8868    -0.8726 H       
  68 H68           -0.5289     1.8773     0.9072 H       
  69 H69            0.5123    -0.3556    -0.8948 H       
  70 H70            0.5293    -0.3651     0.8851 H       
  71 H71           -1.9435    -0.1821     0.9097 H       
  72 H72           -1.9605    -0.1726    -0.8702 H       
  73 H73           -0.9024    -2.4150    -0.8923 H       
  74 H74           -0.8854    -2.4246     0.8875 H       
  75 H75           -3.3581    -2.2415     0.9121 H       
  76 H76           -3.3751    -2.2320    -0.8677 H       
  77 H77           -2.3170    -4.4744    -0.8899 H       
  78 H78           -2.3000    -4.4840     0.8900 H       
  79 H79           -4.7728    -4.3010     0.9146 H       
  80 H80           -4.7898    -4.2914    -0.8653 H       
  81 H81           -3.7316    -6.5338    -0.8874 H       
  82 H82           -3.7146    -6.5434     0.8924 H       
  83 H83           -6.1874    -6.3604     0.9170 H       
  84 H84           -6.2044    -6.3508    -0.8628 H       
  85 H85           -5.1463    -8.5933    -0.8850 H       
  86 H86           -5.1293    -8.6028     0.8949 H       
  87 H87           -7.6020    -8.4198     0.9195 H       
  88 H88           -7.6190    -8.4102    -0.8604 H       
  89 H89           -6.5609   -10.6527    -0.8825 H       
  90 H90           -6.5439   -10.6622     0.8973 H       
  91 H91           -9.0167   -10.4792     0.9219 H       
  92 H92           -9.0337   -10.4697    -0.8579 H       
  93 H93           -7.9755   -12.7121    -0.8801 H       
  94 H94           -7.9586   -12.7217     0.8998 H       
  95 H95          -12.1400   -14.0504    -0.5470 H       
  96 H96          -13.5201   -16.3567    -0.3497 H       
  97 H97          -12.3689   -18.0568    -2.2890 H       
  98 H98          -12.0931   -18.7712    -0.6822 H       
  99 H99          -13.7005   -20.3932    -2.1133 H       
 100 H100         -16.4828   -19.5311    -1.9056 H       
 101 H101         -17.8957   -21.7634    -2.4379 H       
 102 H102         -17.0749   -21.4577    -0.4056 H       
 103 H103         -15.3374   -21.7683    -0.1758 H       
 104 H104         -18.1167   -19.4750     0.5266 H       
 105 H105         -16.3818   -23.5492    -4.1834 H       
 106 H106         -17.8394   -23.0197    -6.1601 H       
 107 H107         -18.5071   -21.6403    -5.2549 H       
 108 H108         -18.2760   -25.0450    -5.3822 H       
 109 H109         -16.2324   -20.6752    -5.0477 H       
 110 H110         -15.5646   -22.0547    -5.9529 H       
 111 H111         -14.9894   -19.7697    -7.2607 H       
 112 H112         -16.0569   -19.4598    -8.5205 H       
 113 H113         -19.8651   -25.9968    -3.1247 H       
 114 H114         -21.1424   -24.9886    -5.7055 H       
 115 H115         -21.9890   -25.9449    -4.4657 H       
 116 H116         -21.3067   -28.0271    -4.1555 H       
 117 H117         -19.8914   -29.2652    -6.3897 H       
 118 H118         -21.5276   -31.1325    -6.0048 H       
 119 H119         -22.1707   -30.2353    -4.6085 H       
 120 H120         -19.8496   -30.4931    -3.5955 H       
 121 H121         -19.2562   -31.2734    -5.0811 H       
 122 H122         -18.4437   -29.8190    -4.4542 H       
 123 H123         -22.7310   -28.3288    -6.0916 H       
 124 H124         -22.0879   -29.2260    -7.4879 H       
 125 H125         -23.7645   -31.0137    -7.1113 H       
 126 H126         -24.4076   -30.1165    -5.7150 H       
 127 H127         -18.0470   -17.7572     2.2881 H       
 128 H128         -13.8752   -18.5032     2.8400 H       
 129 H129         -13.9546   -20.2238     1.0816 H       
 130 H130         -16.0937   -17.4123     4.5364 H       
 131 H131         -24.9679   -28.2100    -7.1982 H       
 132 H132         -24.3248   -29.1072    -8.5945 H       
 133 H133         -26.7104   -29.3525    -8.4011 H       
 134 H134         -25.9816   -30.8204    -8.1183 H       
 135 H135           1.9439     1.6943     0.8826 H       
 136 H136           1.9269     1.7038    -0.8972 H       
 137 H137           1.4019     3.1452     0.0056 H       
 138 H138         -21.4973   -24.1943    -2.7798 H       
 139 H139         -20.6508   -23.2380    -4.0196 H       
 140 H140         -22.7425   -23.1040    -5.3445 H       
 141 H141         -23.5891   -24.0602    -4.1047 H       
 142 H142         -23.0974   -22.3097    -2.4187 H       
 143 H143         -22.2509   -21.3534    -3.6585 H       
 144 H144         -24.5327   -20.6399    -3.3886 H       
 145 H145         -24.3411   -21.3118    -4.8978 H       
 146 H146         -11.9048   -13.8051     1.9423 H       
 147 H147         -13.0606   -15.0760     1.4764 H       
 148 H148         -11.5150   -15.8411     3.1291 H       
 149 C149          36.5309    19.5783    12.5350 C.3     
 150 C150          35.3118    18.6980    12.6345 C.2     
 151 N151          34.3952    18.9226    13.5967 N.am    
 152 C152          33.2101    18.0668    13.6935 C.3     
 153 C153          32.0971    18.8247    14.3701 C.2     
 154 N154          30.9027    18.2329    14.5692 N.am    
 155 C155          29.8207    18.9697    15.2270 C.3     
 156 C156          28.8693    17.9952    15.8722 C.2     
 157 N157          27.7900    18.4490    16.5399 N.am    
 158 O158          29.0748    16.8027    15.7907 O.2     
 159 C159          26.8651    17.5017    17.1672 C.3     
 160 C160          26.1487    18.1790    18.3069 C.2     
 161 C161          25.8429    17.0262    16.1329 C.3     
 162 N162          25.2429    17.4960    19.0346 N.am    
 163 O163          26.3872    19.3388    18.5694 O.2     
 164 C164          24.5465    18.1544    20.1426 C.3     
 165 C165          24.0959    17.1180    21.1395 C.2     
 166 N166          23.4292    17.4948    22.2486 N.am    
 167 O167          24.3331    15.9449    20.9437 O.2     
 168 C168          22.8956    16.4815    23.1622 C.3     
 169 C169          21.5248    16.0598    22.6994 C.2     
 170 O170          21.0413    16.5568    21.7043 O.2     
 171 N171          20.8363    15.1305    23.3912 N.am    
 172 C172          19.5037    14.7205    22.9413 C.3     
 173 C173          19.6377    13.6225    21.8843 C.3     
 174 C174          18.7170    14.1952    24.1144 C.2     
 175 O175          19.2199    14.1661    25.2176 O.2     
 176 N176          17.4545    13.7577    23.9375 N.am    
 177 C177          16.6897    13.2471    25.0779 C.3     
 178 C178          17.0168    11.7675    25.2898 C.3     
 179 C179          15.2159    13.4015    24.8040 C.2     
 180 O180          14.8413    13.8901    23.7590 O.2     
 181 N181          14.3141    12.9968    25.7202 N.am    
 182 C182          12.8814    13.1469    25.4539 C.3     
 183 C183          12.4338    14.5552    25.8505 C.3     
 184 C184          12.1119    12.1304    26.2573 C.2     
 185 O185          12.7021    11.3566    26.9811 O.2     
 186 N186          10.7678    12.0811    26.1715 N.am    
 187 C187          13.1228    15.5820    24.9494 C.3     
 188 C188          12.6752    16.9903    25.3460 C.3     
 189 N189          13.3349    17.9735    24.4832 N.pl3   
 190 C190          13.0855    19.3147    24.6536 C.2     
 191 C191          23.3284    18.9074    19.6038 C.3     
 192 C192          23.7715    19.8723    18.5022 C.3     
 193 O193          22.3890    17.9728    19.0689 O.3     
 194 C194          22.8001    17.0663    24.5728 C.3     
 195 C195          24.1849    17.3609    25.0893 C.2     
 196 O196          24.3532    17.7974    26.3474 O.3     
 197 O197          25.1436    17.2042    24.3708 O.2     
 198 C198          20.3270    14.1914    20.6424 C.3     
 199 C199          20.4610    13.0934    19.5854 C.3     
 200 C200          21.1503    13.6623    18.3436 C.3     
 201 N201          21.2789    12.6080    17.3287 N.3     
 202 C202          18.4642    11.6245    25.6843 C.ar    
 203 C203          18.8220    11.6569    27.0194 C.ar    
 204 C204          19.4313    11.4553    24.7108 C.ar    
 205 C205          20.7588    11.3234    25.0699 C.ar    
 206 C206          21.1211    11.3610    26.4085 C.ar    
 207 C207          20.1482    11.5260    27.3837 C.ar    
 208 N208          13.7046    20.2374    23.8439 N.pl3   
 209 N209          12.2620    19.7115    25.5828 N.2     
 210 C210          29.0686    19.8056    14.1894 C.3     
 211 O211          28.4222    18.9376    13.2563 O.3     
 212 O212          32.2761    19.9672    14.7355 O.2     
 213 C213          33.5478    16.8186    14.5113 C.3     
 214 C214          34.5893    15.9846    13.7625 C.3     
 215 C215          34.9270    14.7364    14.5803 C.3     
 216 N216          35.9242    13.9378    13.8633 N.pl3   
 217 C217          36.3843    12.7623    14.4079 C.2     
 218 N218          37.3201    12.0128    13.7350 N.pl3   
 219 N219          35.9333    12.3583    15.5621 N.2     
 220 O220          35.1556    17.7873    11.8488 O.2     
 221 C221          10.0197    11.0928    26.9526 C.3     
 222 C222           9.7672    11.6331    28.3366 C.2     
 223 C223           8.6831    10.8056    26.2656 C.3     
 224 C224           8.9383    10.1418    24.9109 C.3     
 225 N225           9.0913    10.8916    29.2365 N.am    
 226 O226          10.1723    12.7351    28.6406 O.2     
 227 C227           9.5845     8.7721    25.1277 C.3     
 228 O228          22.4262    11.2311    26.7643 O.3     
 229 N229          37.3656    19.1319    11.4168 N.am    
 230 C230          36.0965    21.0265    12.3007 C.3     
 231 C231          38.6879    19.3926    11.4169 C.2     
 232 C232          37.3253    21.9377    12.3239 C.3     
 233 C233          36.9081    23.3657    11.9667 C.3     
 234 C234          37.9453    21.9223    13.7226 C.3     
 235 C235           7.6109     9.9680    24.1701 C.3     
 236 O236          39.1868    19.9968    12.3426 O.2     
 237 C237          39.5465    18.9335    10.2666 C.3     
 238 H238          37.1012    19.5154    13.4618 H       
 239 H239          34.5201    19.6509    14.2251 H       
 240 H240          32.8928    17.7711    12.6935 H       
 241 H241          30.7595    17.3191    14.2770 H       
 242 H242          30.2396    19.6271    15.9888 H       
 243 H243          27.6256    19.4027    16.6051 H       
 244 H244          27.4234    16.6458    17.5464 H       
 245 H245          25.2846    17.8821    15.7537 H       
 246 H246          26.3610    16.5362    15.3086 H       
 247 H247          25.1547    16.3214    16.5996 H       
 248 H248          25.0522    16.5684    18.8247 H       
 249 H249          25.2220    18.8576    20.6297 H       
 250 H250          23.3028    18.4369    22.4419 H       
 251 H251          23.5581    15.6160    23.1718 H       
 252 H252          21.2231    14.7330    24.1870 H       
 253 H253          18.9858    15.5777    22.5111 H       
 254 H254          20.2323    12.8020    22.2860 H       
 255 H255          18.6476    13.2554    21.6142 H       
 256 H256          17.0523    13.7810    23.0551 H       
 257 H257          16.9537    13.8094    25.9735 H       
 258 H258          16.3832    11.3650    26.0802 H       
 259 H259          16.8363    11.2194    24.3651 H       
 260 H260          14.6138    12.6060    26.5559 H       
 261 H261          12.6909    12.9906    24.3921 H       
 262 H262          11.3531    14.6387    25.7361 H       
 263 H263          12.7049    14.7436    26.8893 H       
 264 H264          10.2957    12.6999    25.5927 H       
 265 H265          14.2036    15.4986    25.0637 H       
 266 H266          12.8517    15.3937    23.9106 H       
 267 H267          11.5944    17.0738    25.2316 H       
 268 H268          12.9463    17.1786    26.3848 H       
 269 H269          13.9477    17.6782    23.7917 H       
 270 H270          22.8615    19.4692    20.4128 H       
 271 H271          22.9038    20.4087    18.1184 H       
 272 H272          24.4881    20.5852    18.9102 H       
 273 H273          24.2384    19.3105    17.6932 H       
 274 H274          21.5898    18.3809    18.7086 H       
 275 H275          22.2188    17.9880    24.5454 H       
 276 H276          22.3118    16.3482    25.2315 H       
 277 H277          25.2600    17.9729    26.6336 H       
 278 H278          19.7324    15.0119    20.2407 H       
 279 H279          21.3171    14.5585    20.9125 H       
 280 H280          21.0555    12.2729    19.9872 H       
 281 H281          19.4708    12.7263    19.3153 H       
 282 H282          20.5557    14.4828    17.9418 H       
 283 H283          22.1404    14.0294    18.6137 H       
 284 H284          20.3798    12.2066    17.1084 H       
 285 H285          21.7315    12.9591    16.4980 H       
 286 H286          18.0642    11.7851    27.7782 H       
 287 H287          19.1487    11.4258    23.6688 H       
 288 H288          21.5138    11.1909    24.3091 H       
 289 H289          20.4277    11.5555    28.4264 H       
 290 H290          14.3173    19.9421    23.1524 H       
 291 H291          13.5286    21.1837    23.9642 H       
 292 H292          12.0860    20.6578    25.7030 H       
 293 H293          28.3217    20.4210    14.6908 H       
 294 H294          29.7729    20.4478    13.6606 H       
 295 H295          27.9250    19.4004    12.5680 H       
 296 H296          33.9491    17.1164    15.4800 H       
 297 H297          32.6452    16.2256    14.6588 H       
 298 H298          34.1880    15.6867    12.7938 H       
 299 H299          35.4919    16.5775    13.6150 H       
 300 H300          35.3283    15.0342    15.5490 H       
 301 H301          34.0243    14.1434    14.7277 H       
 302 H302          36.2598    14.2384    13.0043 H       
 303 H303          37.6558    12.3135    12.8760 H       
 304 H304          37.6448    11.1835    14.1192 H       
 305 H305          36.2580    11.5289    15.9464 H       
 306 H306          10.5979    10.1714    27.0221 H       
 307 H307           8.0892    10.1389    26.8907 H       
 308 H308           8.1431    11.7405    26.1161 H       
 309 H309           9.6053    10.7686    24.3190 H       
 310 H310           8.7674    10.0102    28.9933 H       
 311 H311           8.9288    11.2393    30.1273 H       
 312 H312           9.7663     8.2992    24.1626 H       
 313 H313          10.5301     8.8959    25.6555 H       
 314 H314           8.9175     8.1452    25.7196 H       
 315 H315          22.9053    12.0695    26.8153 H       
 316 H316          36.9666    18.6487    10.6764 H       
 317 H317          35.6036    21.1057    11.3317 H       
 318 H318          35.4043    21.3298    13.0863 H       
 319 H319          38.0563    21.5805    11.5985 H       
 320 H320          36.1771    23.7229    12.6921 H       
 321 H321          37.7836    24.0149    11.9832 H       
 322 H322          36.4664    23.3767    10.9702 H       
 323 H323          37.2143    22.2795    14.4480 H       
 324 H324          38.2425    20.9050    13.9771 H       
 325 H325          38.8207    22.5715    13.7391 H       
 326 H326           7.1505    10.9438    24.0156 H       
 327 H327           7.7927     9.4951    23.2049 H       
 328 H328           6.9439     9.3411    24.7619 H       
 329 H329          38.9273    18.4124     9.5364 H       
 330 H330          40.0149    19.7975     9.7953 H       
 331 H331          40.3183    18.2583    10.6363 H       
@<TRIPOS>BOND
   1    1    2 1
   2    1   59 1
   3    1   67 1
   4    1   68 1
   5    2    3 1
   6    2   69 1
   7    2   70 1
   8    3    4 1
   9    3   71 1
  10    3   72 1
  11    4    5 1
  12    4   73 1
  13    4   74 1
  14    5    6 1
  15    5   75 1
  16    5   76 1
  17    6    7 1
  18    6   77 1
  19    6   78 1
  20    7    8 1
  21    7   79 1
  22    7   80 1
  23    8    9 1
  24    8   81 1
  25    8   82 1
  26    9   10 1
  27    9   83 1
  28    9   84 1
  29   10   11 1
  30   10   85 1
  31   10   86 1
  32   11   12 1
  33   11   87 1
  34   11   88 1
  35   12   13 1
  36   12   89 1
  37   12   90 1
  38   13   14 1
  39   13   91 1
  40   13   92 1
  41   14   15 1
  42   14   93 1
  43   14   94 1
  44   15   16 am
  45   15   17 2
  46   16   18 1
  47   16   60 1
  48   18   19 1
  49   18   65 1
  50   18   95 1
  51   19   20 am
  52   19   21 2
  53   20   22 1
  54   20   96 1
  55   22   23 1
  56   22   97 1
  57   22   98 1
  58   23   24 am
  59   23   25 2
  60   24   26 1
  61   24   99 1
  62   26   27 1
  63   26   30 1
  64   26  100 1
  65   27   28 2
  66   27   29 am
  67   29   33 1
  68   29  101 1
  69   30   31 1
  70   30  102 1
  71   30  103 1
  72   31   32 ar
  73   31   54 ar
  74   32   51 ar
  75   32  104 1
  76   33   34 1
  77   33   35 1
  78   33  105 1
  79   34   38 1
  80   34  106 1
  81   34  107 1
  82   35   36 2
  83   35   37 am
  84   37   41 1
  85   37  108 1
  86   38   39 1
  87   38  109 1
  88   38  110 1
  89   39   40 am
  90   39   56 2
  91   40  111 1
  92   40  112 1
  93   41   42 1
  94   41   43 1
  95   41  113 1
  96   42   61 1
  97   42  114 1
  98   42  115 1
  99   43   44 2
 100   43   45 am
 101   45   46 1
 102   45  116 1
 103   46   47 1
 104   46   48 1
 105   46  117 1
 106   47   49 1
 107   47  118 1
 108   47  119 1
 109   48  120 1
 110   48  121 1
 111   48  122 1
 112   49   50 1
 113   49  123 1
 114   49  124 1
 115   50   57 1
 116   50  125 1
 117   50  126 1
 118   51   52 ar
 119   51  127 1
 120   52   53 ar
 121   52   55 1
 122   53   54 ar
 123   53  128 1
 124   54  129 1
 125   55  130 1
 126   57   58 1
 127   57  131 1
 128   57  132 1
 129   58  133 1
 130   58  134 1
 131   59  135 1
 132   59  136 1
 133   59  137 1
 134   61   62 1
 135   61  138 1
 136   61  139 1
 137   62   63 1
 138   62  140 1
 139   62  141 1
 140   63   64 1
 141   63  142 1
 142   63  143 1
 143   64  144 1
 144   64  145 1
 145   65   66 1
 146   65  146 1
 147   65  147 1
 148   66  148 1
 149  149  150 1
 150  149  229 1
 151  149  230 1
 152  149  238 1
 153  150  151 am
 154  150  220 2
 155  151  152 1
 156  151  239 1
 157  152  153 1
 158  152  213 1
 159  152  240 1
 160  153  154 am
 161  153  212 2
 162  154  155 1
 163  154  241 1
 164  155  156 1
 165  155  210 1
 166  155  242 1
 167  156  157 am
 168  156  158 2
 169  157  159 1
 170  157  243 1
 171  159  160 1
 172  159  161 1
 173  159  244 1
 174  160  162 am
 175  160  163 2
 176  161  245 1
 177  161  246 1
 178  161  247 1
 179  162  164 1
 180  162  248 1
 181  164  165 1
 182  164  191 1
 183  164  249 1
 184  165  166 am
 185  165  167 2
 186  166  168 1
 187  166  250 1
 188  168  169 1
 189  168  194 1
 190  168  251 1
 191  169  170 2
 192  169  171 am
 193  171  172 1
 194  171  252 1
 195  172  173 1
 196  172  174 1
 197  172  253 1
 198  173  198 1
 199  173  254 1
 200  173  255 1
 201  174  175 2
 202  174  176 am
 203  176  177 1
 204  176  256 1
 205  177  178 1
 206  177  179 1
 207  177  257 1
 208  178  202 1
 209  178  258 1
 210  178  259 1
 211  179  180 2
 212  179  181 am
 213  181  182 1
 214  181  260 1
 215  182  183 1
 216  182  184 1
 217  182  261 1
 218  183  187 1
 219  183  262 1
 220  183  263 1
 221  184  185 2
 222  184  186 am
 223  186  221 1
 224  186  264 1
 225  187  188 1
 226  187  265 1
 227  187  266 1
 228  188  189 1
 229  188  267 1
 230  188  268 1
 231  189  190 1
 232  189  269 1
 233  190  208 1
 234  190  209 2
 235  191  192 1
 236  191  193 1
 237  191  270 1
 238  192  271 1
 239  192  272 1
 240  192  273 1
 241  193  274 1
 242  194  195 1
 243  194  275 1
 244  194  276 1
 245  195  196 1
 246  195  197 2
 247  196  277 1
 248  198  199 1
 249  198  278 1
 250  198  279 1
 251  199  200 1
 252  199  280 1
 253  199  281 1
 254  200  201 1
 255  200  282 1
 256  200  283 1
 257  201  284 1
 258  201  285 1
 259  202  203 ar
 260  202  204 ar
 261  203  207 ar
 262  203  286 1
 263  204  205 ar
 264  204  287 1
 265  205  206 ar
 266  205  288 1
 267  206  207 ar
 268  206  228 1
 269  207  289 1
 270  208  290 1
 271  208  291 1
 272  209  292 1
 273  210  211 1
 274  210  293 1
 275  210  294 1
 276  211  295 1
 277  213  214 1
 278  213  296 1
 279  213  297 1
 280  214  215 1
 281  214  298 1
 282  214  299 1
 283  215  216 1
 284  215  300 1
 285  215  301 1
 286  216  217 1
 287  216  302 1
 288  217  218 1
 289  217  219 2
 290  218  303 1
 291  218  304 1
 292  219  305 1
 293  221  222 1
 294  221  223 1
 295  221  306 1
 296  222  225 am
 297  222  226 2
 298  223  224 1
 299  223  307 1
 300  223  308 1
 301  224  227 1
 302  224  235 1
 303  224  309 1
 304  225  310 1
 305  225  311 1
 306  227  312 1
 307  227  313 1
 308  227  314 1
 309  228  315 1
 310  229  231 am
 311  229  316 1
 312  230  232 1
 313  230  317 1
 314  230  318 1
 315  231  236 2
 316  231  237 1
 317  232  233 1
 318  232  234 1
 319  232  319 1
 320  233  320 1
 321  233  321 1
 322  233  322 1
 323  234  323 1
 324  234  324 1
 325  234  325 1
 326  235  326 1
 327  235  327 1
 328  235  328 1
 329  237  329 1
 330  237  330 1
 331  237  331 1

#	End of record

