#	Name: ASD05430393
#	Creating user name:	WinNT
#	Creation time:	15. 06. 2019 21:00

#	Modifying user name:	WinNT
#	Modification time:	15. 06. 2019 21:00

#	Program:	/corina/corina34_cracker 3.40 0067  02.08.2006

@<TRIPOS>MOLECULE
ASD05430393
  54   57    0    0    0
SMALL
NO_CHARGES


@<TRIPOS>ATOM
   1 C1            -0.0168     1.3911     0.0097 C.ar    
   2 C2             0.0021    -0.0041     0.0020 C.ar    
   3 C3            -1.1897    -0.7190     0.0100 C.ar    
   4 C4            -2.3954    -0.0542     0.0256 C.ar    
   5 C5            -2.4227     1.3458     0.0333 C.ar    
   6 C6            -1.2220     2.0655     0.0306 C.ar    
   7 C7            -4.8671     1.3600     0.0577 C.2     
   8 C8            -3.7079     2.0574     0.0499 C.2     
   9 C9            -6.1051     2.0455     0.0736 C.2     
  10 O10            1.1512     2.0867     0.0023 O.3     
  11 C11            1.0572     3.5126     0.0108 C.3     
  12 C12            1.6004    -1.7059     0.8211 C.2     
  13 N13            1.2247    -0.6855    -0.0142 N.pl3   
  14 C14            2.8460    -2.0675     0.4592 C.2     
  15 N15            3.2254    -1.2928    -0.5680 N.2     
  16 C16            2.2633    -0.4611    -0.8610 C.2     
  17 C17            3.6713    -3.1544     1.0983 C.3     
  18 C18           -8.4810     1.9906    -0.4712 C.3     
  19 C19           -8.5979     3.3739     0.1833 C.3     
  20 C20           -7.2591     4.0620     0.1105 C.2     
  21 N21           -6.1286     3.3724     0.0754 N.2     
  22 C22           -8.3434     2.1414    -1.9643 C.ar    
  23 C23           -7.6349     1.2027    -2.6910 C.ar    
  24 C24           -8.0906     2.4183    -4.7043 C.ar    
  25 C25           -8.8056     3.3544    -3.9763 C.ar    
  26 C26           -8.9306     3.2153    -2.6071 C.ar    
  27 C27           -7.5078     1.3402    -4.0602 C.ar    
  28 N28           -7.2825     1.3368     0.0815 N.pl3   
  29 C29           -9.7212     1.1558    -0.1460 C.3     
  30 O30           -7.2155     5.2767     0.0867 O.2     
  31 F31           -7.9681     2.5531    -6.0429 F       
  32 H32           -1.1701    -1.7988     0.0037 H       
  33 H33           -3.3199    -0.6125     0.0314 H       
  34 H34           -1.2380     3.1453     0.0366 H       
  35 H35           -4.8477     0.2802     0.0517 H       
  36 H36           -3.7272     3.1372     0.0559 H       
  37 H37            2.0587     3.9428     0.0036 H       
  38 H38            0.5121     3.8461    -0.8722 H       
  39 H39            0.5291     3.8365     0.9076 H       
  40 H40            1.0121    -2.1342     1.6191 H       
  41 H41            2.2884     0.2810    -1.6454 H       
  42 H42            3.4799    -4.1009     0.5925 H       
  43 H43            4.7289    -2.9047     1.0138 H       
  44 H44            3.4020    -3.2439     2.1507 H       
  45 H45           -9.3431     3.9667    -0.3471 H       
  46 H46           -8.8945     3.2603     1.2261 H       
  47 H47           -7.1804     0.3618    -2.1883 H       
  48 H48           -9.2650     4.1930    -4.4784 H       
  49 H49           -9.4876     3.9457    -2.0390 H       
  50 H50           -6.9536     0.6071    -4.6276 H       
  51 H51           -7.3228     0.4359     0.4388 H       
  52 H52          -10.6091     1.6605    -0.5269 H       
  53 H53           -9.6320     0.1752    -0.6135 H       
  54 H54           -9.8062     1.0370     0.9342 H       
@<TRIPOS>BOND
   1    1    2 ar
   2    1   10 1
   3    1    6 ar
   4    2    3 ar
   5    2   13 1
   6    3    4 ar
   7    3   32 1
   8    4    5 ar
   9    4   33 1
  10    5    6 ar
  11    5    8 1
  12    6   34 1
  13    7    8 2
  14    7    9 1
  15    7   35 1
  16    8   36 1
  17    9   28 1
  18    9   21 2
  19   10   11 1
  20   11   37 1
  21   11   38 1
  22   11   39 1
  23   12   13 1
  24   12   14 2
  25   12   40 1
  26   13   16 1
  27   14   15 1
  28   14   17 1
  29   15   16 2
  30   16   41 1
  31   17   42 1
  32   17   43 1
  33   17   44 1
  34   18   19 1
  35   18   22 1
  36   18   29 1
  37   18   28 1
  38   19   20 1
  39   19   45 1
  40   19   46 1
  41   20   21 1
  42   20   30 2
  43   22   23 ar
  44   22   26 ar
  45   23   27 ar
  46   23   47 1
  47   24   25 ar
  48   24   31 1
  49   24   27 ar
  50   25   26 ar
  51   25   48 1
  52   26   49 1
  53   27   50 1
  54   28   51 1
  55   29   52 1
  56   29   53 1
  57   29   54 1

#	End of record

