#	Name: ASD01410792
#	Creating user name:	WinNT
#	Creation time:	15. 06. 2019 19:18

#	Modifying user name:	WinNT
#	Modification time:	15. 06. 2019 19:18

#	Program:	/corina/corina34_cracker 3.40 0067  02.08.2006

@<TRIPOS>MOLECULE
ASD01410792
  46   48    0    0    0
SMALL
NO_CHARGES


@<TRIPOS>ATOM
   1 N1            -0.0158     1.3152     0.0093 N.ar    
   2 C2             0.0021    -0.0041     0.0020 C.ar    
   3 C3             1.2072    -0.7206    -0.0133 C.ar    
   4 C4             2.3966    -0.0497    -0.0211 C.ar    
   5 C5             2.3688     1.3598    -0.0132 C.ar    
   6 C6             3.5555     2.1091    -0.0209 C.ar    
   7 C7             3.4991     3.4687    -0.0136 C.ar    
   8 C8             2.2701     4.1347     0.0021 C.ar    
   9 C9             1.0871     3.4301     0.0101 C.ar    
  10 C10            1.1162     2.0246     0.0023 C.ar    
  11 O11            2.2426     5.4931     0.0101 O.3     
  12 C12            3.5024     6.1676     0.0017 C.3     
  13 C13            3.2713     7.6800     0.0124 C.3     
  14 O14            2.6484     8.0579     1.2417 O.3     
  15 C15            2.3871     9.4583     1.3545 C.3     
  16 C16           -1.2823    -0.7463     0.0108 C.ar    
  17 C17           -2.4857    -0.0445     0.0265 C.ar    
  18 C18           -3.6763    -0.7510     0.0345 C.ar    
  19 C19           -3.6237    -2.1374     0.0266 C.ar    
  20 C20           -2.3932    -2.7693     0.0110 C.ar    
  21 N21           -1.2755    -2.0728    -0.0019 N.ar    
  22 C22           -2.3310    -4.2750     0.0028 C.3     
  23 C23           -2.4210    -4.7969     1.4382 C.3     
  24 C24           -3.4988    -4.8293    -0.8157 C.3     
  25 Cl25          -0.4309     4.2721     0.0301 Cl      
  26 Cl26           3.9041    -0.9104    -0.0395 Cl      
  27 H27            1.1948    -1.8005    -0.0187 H       
  28 H28            4.5119     1.6075    -0.0323 H       
  29 H29            4.4153     4.0404    -0.0196 H       
  30 H30            4.0739     5.8810     0.8845 H       
  31 H31            4.0566     5.8911    -0.8953 H       
  32 H32            4.2275     8.1944    -0.0835 H       
  33 H33            2.6256     7.9548    -0.8216 H       
  34 H34            1.7230     9.7700     0.5483 H       
  35 H35            1.9139     9.6634     2.3147 H       
  36 H36            3.3249    10.0095     1.2864 H       
  37 H37           -2.4897     1.0355     0.0327 H       
  38 H38           -4.6248    -0.2345     0.0471 H       
  39 H39           -4.5345    -2.7176     0.0329 H       
  40 H40           -1.3898    -4.5973    -0.4427 H       
  41 H41           -1.5890    -4.4021     2.0212 H       
  42 H42           -3.3621    -4.4746     1.8836 H       
  43 H43           -2.3759    -5.8860     1.4322 H       
  44 H44           -3.4347    -4.4574    -1.8382 H       
  45 H45           -3.4538    -5.9183    -0.8216 H       
  46 H46           -4.4400    -4.5069    -0.3702 H       
@<TRIPOS>BOND
   1    1    2 ar
   2    1   10 ar
   3    2    3 ar
   4    2   16 1
   5    3    4 ar
   6    3   27 1
   7    4    5 ar
   8    4   26 1
   9    5    6 ar
  10    5   10 ar
  11    6    7 ar
  12    6   28 1
  13    7    8 ar
  14    7   29 1
  15    8    9 ar
  16    8   11 1
  17    9   10 ar
  18    9   25 1
  19   11   12 1
  20   12   13 1
  21   12   30 1
  22   12   31 1
  23   13   14 1
  24   13   32 1
  25   13   33 1
  26   14   15 1
  27   15   34 1
  28   15   35 1
  29   15   36 1
  30   16   17 ar
  31   16   21 ar
  32   17   18 ar
  33   17   37 1
  34   18   19 ar
  35   18   38 1
  36   19   20 ar
  37   19   39 1
  38   20   21 ar
  39   20   22 1
  40   22   23 1
  41   22   24 1
  42   22   40 1
  43   23   41 1
  44   23   42 1
  45   23   43 1
  46   24   44 1
  47   24   45 1
  48   24   46 1

#	End of record

