#	Name: ASD03740039
#	Creating user name:	WinNT
#	Creation time:	15. 06. 2019 20:46

#	Modifying user name:	WinNT
#	Modification time:	15. 06. 2019 20:46

#	Program:	/corina/corina34_cracker 3.40 0067  02.08.2006

@<TRIPOS>MOLECULE
ASD03740039
  55   56    0    0    0
SMALL
NO_CHARGES


@<TRIPOS>ATOM
   1 C1            -0.4275     1.1678     0.4251 C.3     
   2 N2            -0.2786    -0.2898     0.5318 N.3     
   3 C3             0.9345     1.8129     0.4219 C.ar    
   4 C4             1.0866     3.1088     0.8820 C.ar    
   5 C5             2.3424     3.7020     0.8789 C.ar    
   6 C6             3.4408     2.9923     0.4141 C.ar    
   7 C7             3.2822     1.6975    -0.0444 C.ar    
   8 C8             2.0319     1.1073    -0.0355 C.ar    
   9 O9             2.4953     4.9755     1.3300 O.3     
  10 C10            2.7664     5.1568     2.6490 C.ar    
  11 C11            2.9306     6.4384     3.1551 C.ar    
  12 C12            3.2062     6.6199     4.4964 C.ar    
  13 C13            3.3183     5.5260     5.3347 C.ar    
  14 C14            3.1555     4.2478     4.8329 C.ar    
  15 C15            2.8737     4.0610     3.4936 C.ar    
  16 Cl16           5.0123     3.7298     0.4078 Cl      
  17 F17            0.0148     3.7965     1.3333 F       
  18 C18           -1.1579     1.5120    -0.8745 C.3     
  19 C19           -2.5915     0.9816    -0.8097 C.3     
  20 C20           -0.3844    -0.7287     1.9297 C.3     
  21 C21            0.1582    -2.1534     2.0593 C.3     
  22 C22           -1.8512    -0.7002     2.3637 C.3     
  23 C23            1.6254    -2.1654     1.7152 C.2     
  24 N24            2.2985    -3.3324     1.6745 N.am    
  25 O25            2.2004    -1.1250     1.4749 O.2     
  26 C26            3.7247    -3.3441     1.3399 C.3     
  27 C27            4.2423    -4.7837     1.3633 C.3     
  28 N28            5.6724    -4.7954     1.0279 N.3     
  29 H29           -1.0026     1.5374     1.2740 H       
  30 H30           -0.9530    -0.7656    -0.0486 H       
  31 H31            4.1368     1.1452    -0.4065 H       
  32 H32            1.9116     0.0944    -0.3904 H       
  33 H33            2.8435     7.2931     2.5007 H       
  34 H34            3.3345     7.6172     4.8907 H       
  35 H35            3.5337     5.6701     6.3831 H       
  36 H36            3.2443     3.3951     5.4897 H       
  37 H37            2.7416     3.0628     3.1032 H       
  38 H38           -1.1763     2.5939    -1.0054 H       
  39 H39           -0.6384     1.0530    -1.7158 H       
  40 H40           -2.5733    -0.1030    -0.7034 H       
  41 H41           -3.1034     1.4219     0.0461 H       
  42 H42           -3.1193     1.2482    -1.7253 H       
  43 H43            0.1957    -0.0598     2.5655 H       
  44 H44            0.0223    -2.5023     3.0830 H       
  45 H45           -0.3804    -2.8109     1.3769 H       
  46 H46           -1.9248    -0.9802     3.4145 H       
  47 H47           -2.2513     0.3044     2.2265 H       
  48 H48           -2.4227    -1.4046     1.7592 H       
  49 H49            1.8386    -4.1645     1.8667 H       
  50 H50            3.8680    -2.9226     0.3450 H       
  51 H51            4.2739    -2.7486     2.0693 H       
  52 H52            4.0990    -5.2052     2.3583 H       
  53 H53            3.6931    -5.3791     0.6340 H       
  54 H54            6.1949    -4.1983     1.6512 H       
  55 H55            6.0382    -5.7357     1.0367 H       
@<TRIPOS>BOND
   1    1    2 1
   2    1    3 1
   3    1   18 1
   4    1   29 1
   5    2   20 1
   6    2   30 1
   7    3    4 ar
   8    3    8 ar
   9    4    5 ar
  10    4   17 1
  11    5    6 ar
  12    5    9 1
  13    6    7 ar
  14    6   16 1
  15    7    8 ar
  16    7   31 1
  17    8   32 1
  18    9   10 1
  19   10   11 ar
  20   10   15 ar
  21   11   12 ar
  22   11   33 1
  23   12   13 ar
  24   12   34 1
  25   13   14 ar
  26   13   35 1
  27   14   15 ar
  28   14   36 1
  29   15   37 1
  30   18   19 1
  31   18   38 1
  32   18   39 1
  33   19   40 1
  34   19   41 1
  35   19   42 1
  36   20   21 1
  37   20   22 1
  38   20   43 1
  39   21   23 1
  40   21   44 1
  41   21   45 1
  42   22   46 1
  43   22   47 1
  44   22   48 1
  45   23   24 am
  46   23   25 2
  47   24   26 1
  48   24   49 1
  49   26   27 1
  50   26   50 1
  51   26   51 1
  52   27   28 1
  53   27   52 1
  54   27   53 1
  55   28   54 1
  56   28   55 1

#	End of record

