#	Name: ASD01870116
#	Creating user name:	WinNT
#	Creation time:	15. 06. 2019 19:38

#	Modifying user name:	WinNT
#	Modification time:	15. 06. 2019 19:38

#	Program:	/corina/corina34_cracker 3.40 0067  02.08.2006

@<TRIPOS>MOLECULE
ASD01870116
  29   30    0    0    0
SMALL
NO_CHARGES


@<TRIPOS>ATOM
   1 C1            -0.0168     1.3750    -0.0142 C.ar    
   2 C2             0.0023    -0.0053    -0.0244 C.ar    
   3 C3             1.2080    -0.6898    -0.0345 C.ar    
   4 C4             2.4005     0.0025    -0.0351 C.ar    
   5 C5             2.3945     1.3997    -0.0253 C.ar    
   6 C6             1.1734     2.0872    -0.0146 C.ar    
   7 O7             1.1555     3.4438    -0.0054 O.3     
   8 Cl8            1.2164    -2.4258    -0.0461 Cl      
   9 C9             3.6663     2.1469    -0.0253 C.2     
  10 O10            3.6571     3.3628    -0.0167 O.2     
  11 N11            4.8386     1.4819    -0.0347 N.am    
  12 C12            6.0415     2.1866    -0.1475 C.ar    
  13 C13            7.1753     1.7368     0.5183 C.ar    
  14 C14            6.1042     3.3308    -0.9282 C.ar    
  15 C15            7.3056     4.0293    -1.0378 C.ar    
  16 C16            8.4376     3.5724    -0.3609 C.ar    
  17 C17            8.3665     2.4299     0.4098 C.ar    
  18 C18            7.3783     5.2115    -1.8426 C.1     
  19 C19            7.4378     6.1808    -2.5024 C.1     
  20 H20           -0.9599     1.9012    -0.0104 H       
  21 H21           -0.9272    -0.5552    -0.0240 H       
  22 H22            3.3376    -0.5343    -0.0426 H       
  23 H23            1.1458     3.8429    -0.8862 H       
  24 H24            4.8480     0.5146     0.0367 H       
  25 H25            7.1257     0.8432     1.1226 H       
  26 H26            5.2252     3.6795    -1.4500 H       
  27 H27            9.3703     4.1107    -0.4436 H       
  28 H28            9.2434     2.0782     0.9331 H       
  29 H29            7.4911     7.0476    -3.0925 H       
@<TRIPOS>BOND
   1    1    2 ar
   2    1    6 ar
   3    1   20 1
   4    2    3 ar
   5    2   21 1
   6    3    4 ar
   7    3    8 1
   8    4    5 ar
   9    4   22 1
  10    5    6 ar
  11    5    9 1
  12    6    7 1
  13    7   23 1
  14    9   10 2
  15    9   11 am
  16   11   12 1
  17   11   24 1
  18   12   13 ar
  19   12   14 ar
  20   13   17 ar
  21   13   25 1
  22   14   15 ar
  23   14   26 1
  24   15   16 ar
  25   15   18 1
  26   16   17 ar
  27   16   27 1
  28   17   28 1
  29   18   19 3
  30   19   29 1

#	End of record

