#	Name: ASD02039243
#	Creating user name:	WinNT
#	Creation time:	15. 06. 2019 20:17

#	Modifying user name:	WinNT
#	Modification time:	15. 06. 2019 20:17

#	Program:	/corina/corina34_cracker 3.40 0067  02.08.2006

@<TRIPOS>MOLECULE
ASD02039243
  40   43    0    0    0
SMALL
NO_CHARGES


@<TRIPOS>ATOM
   1 N1            -0.0160     1.3037    -0.0272 N.2     
   2 C2             0.0020    -0.0039     0.0001 C.2     
   3 C3             1.3718    -0.3811     0.0201 C.2     
   4 C4             2.0347     0.7972     0.0016 C.2     
   5 O5             1.1031     1.7614    -0.0267 O.3     
   6 N6            -1.0993    -0.8548     0.0084 N.pl3   
   7 C7            -0.9163    -2.2363    -0.1059 C.ar    
   8 C8             0.1060    -2.7393    -0.9008 C.ar    
   9 C9             0.2850    -4.1040    -1.0123 C.ar    
  10 C10           -0.5530    -4.9711    -0.3335 C.ar    
  11 C11           -1.5729    -4.4731     0.4598 C.ar    
  12 C12           -1.7524    -3.1077     0.5796 C.ar    
  13 Cl13          -0.3256    -6.6862    -0.4770 Cl      
  14 O14            4.0138     1.0222    -1.3331 O.3     
  15 C15            5.3522     1.1905    -1.5028 C.ar    
  16 C16            6.1807     1.3213    -0.3911 C.ar    
  17 C17            7.5391     1.4920    -0.5440 C.ar    
  18 C18            8.0948     1.5351    -1.8180 C.ar    
  19 C19            7.2610     1.4032    -2.9446 C.ar    
  20 C20            5.8841     1.2251    -2.7764 C.ar    
  21 N21            9.4532     1.7064    -1.9922 N.am    
  22 C22            9.9927     1.7493    -3.2229 C.2     
  23 C23            9.2004     1.6225    -4.3838 C.2     
  24 C24            7.8593     1.4514    -4.2801 C.2     
  25 O25           11.1965     1.9019    -3.3389 O.2     
  26 C26            3.5294     0.9894     0.0109 C.3     
  27 Cl27          -2.6226    -5.5639     1.3095 Cl      
  28 H28            1.7870    -1.3777     0.0448 H       
  29 H29           -1.9939    -0.4895     0.0934 H       
  30 H30            0.7601    -2.0634    -1.4316 H       
  31 H31            1.0798    -4.4951    -1.6303 H       
  32 H32           -2.5479    -2.7192     1.1982 H       
  33 H33            5.7540     1.2889     0.6005 H       
  34 H34            8.1721     1.5928     0.3252 H       
  35 H35            5.2401     1.1231    -3.6374 H       
  36 H36           10.0269     1.7975    -1.2154 H       
  37 H37            9.6640     1.6614    -5.3585 H       
  38 H38            7.2457     1.3528    -5.1634 H       
  39 H39            3.7718     1.9290     0.5075 H       
  40 H40            3.9985     0.1639     0.5462 H       
@<TRIPOS>BOND
   1    1    2 2
   2    1    5 1
   3    2    3 1
   4    2    6 1
   5    3    4 2
   6    3   28 1
   7    4    5 1
   8    4   26 1
   9    6    7 1
  10    6   29 1
  11    7    8 ar
  12    7   12 ar
  13    8    9 ar
  14    8   30 1
  15    9   10 ar
  16    9   31 1
  17   10   11 ar
  18   10   13 1
  19   11   12 ar
  20   11   27 1
  21   12   32 1
  22   14   15 1
  23   14   26 1
  24   15   16 ar
  25   15   20 ar
  26   16   17 ar
  27   16   33 1
  28   17   18 ar
  29   17   34 1
  30   18   19 ar
  31   18   21 1
  32   19   20 ar
  33   19   24 1
  34   20   35 1
  35   21   22 am
  36   21   36 1
  37   22   23 1
  38   22   25 2
  39   23   24 2
  40   23   37 1
  41   24   38 1
  42   26   39 1
  43   26   40 1

#	End of record

