#	Name: ASD01830034
#	Creating user name:	WinNT
#	Creation time:	15. 06. 2019 19:36

#	Modifying user name:	WinNT
#	Modification time:	15. 06. 2019 19:36

#	Program:	/corina/corina34_cracker 3.40 0067  02.08.2006

@<TRIPOS>MOLECULE
ASD01830034
  49   52    0    0    0
SMALL
NO_CHARGES


@<TRIPOS>ATOM
   1 C1            -0.1191     1.3453    -0.0595 C.ar    
   2 C2            -0.0644    -0.0369    -0.0556 C.ar    
   3 C3             1.1645    -0.6742    -0.0284 C.ar    
   4 C4             2.3405     0.0823    -0.0415 C.ar    
   5 C5             2.2772     1.4707    -0.0279 C.ar    
   6 C6             1.0443     2.0951    -0.0368 C.ar    
   7 N7             1.2678    -2.0585     0.0684 N.am    
   8 C8             1.8666    -2.8610    -0.8985 C.ar    
   9 C9             3.0831    -2.5771    -1.4982 C.ar    
  10 N10            3.8769    -1.4618    -1.2103 N.pl3   
  11 C11            3.6367    -0.6294    -0.1208 C.2     
  12 N12            1.1990    -3.9634    -1.2449 N.ar    
  13 C13            1.6450    -4.8081    -2.1482 C.ar    
  14 C14            2.8477    -4.5849    -2.7899 C.ar    
  15 C15            3.5808    -3.4571    -2.4651 C.ar    
  16 C16            4.5563    -0.4755     0.8331 C.2     
  17 C17            0.7584    -2.6576     1.1630 C.2     
  18 C18            0.8465    -4.1545     1.3125 C.3     
  19 O19            0.2291    -1.9918     2.0277 O.2     
  20 N20            0.3629    -4.5429     2.6442 N.3     
  21 C21            1.2585    -4.0425     3.6964 C.3     
  22 C22            0.6793    -4.3986     5.0675 C.3     
  23 N23            0.5193    -5.8562     5.1653 N.3     
  24 C24           -0.3763    -6.3566     4.1131 C.3     
  25 C25            0.2029    -6.0005     2.7419 C.3     
  26 C26            0.0357    -6.2445     6.4969 C.3     
  27 H27           -1.0770     1.8434    -0.0849 H       
  28 H28           -0.9758    -0.6160    -0.0734 H       
  29 H29            3.1841     2.0568    -0.0107 H       
  30 H30            0.9882     3.1735    -0.0259 H       
  31 H31            4.6254    -1.2604    -1.7935 H       
  32 H32            1.0649    -5.6862    -2.3910 H       
  33 H33            3.2103    -5.2798    -3.5329 H       
  34 H34            4.5243    -3.2587    -2.9519 H       
  35 H35            5.4982    -0.9995     0.7647 H       
  36 H36            4.3589     0.1730     1.6739 H       
  37 H37            0.2326    -4.6327     0.5493 H       
  38 H38            1.8830    -4.4710     1.1959 H       
  39 H39            2.2410    -4.5015     3.5863 H       
  40 H40            1.3509    -2.9598     3.6107 H       
  41 H41            1.3564    -4.0538     5.8490 H       
  42 H42           -0.2912    -3.9173     5.1885 H       
  43 H43           -0.4687    -7.4393     4.1988 H       
  44 H44           -1.3588    -5.8975     4.2232 H       
  45 H45           -0.4742    -6.3452     1.9604 H       
  46 H46            1.1734    -6.4817     2.6210 H       
  47 H47           -0.9293    -5.7737     6.6846 H       
  48 H48           -0.0739    -7.3281     6.5419 H       
  49 H49            0.7514    -5.9200     7.2523 H       
@<TRIPOS>BOND
   1    1    2 ar
   2    1    6 ar
   3    1   27 1
   4    2    3 ar
   5    2   28 1
   6    3    4 ar
   7    3    7 1
   8    4    5 ar
   9    4   11 1
  10    5    6 ar
  11    5   29 1
  12    6   30 1
  13    7    8 1
  14    7   17 am
  15    8    9 ar
  16    8   12 ar
  17    9   10 1
  18    9   15 ar
  19   10   11 1
  20   10   31 1
  21   11   16 2
  22   12   13 ar
  23   13   14 ar
  24   13   32 1
  25   14   15 ar
  26   14   33 1
  27   15   34 1
  28   16   35 1
  29   16   36 1
  30   17   18 1
  31   17   19 2
  32   18   20 1
  33   18   37 1
  34   18   38 1
  35   20   21 1
  36   20   25 1
  37   21   22 1
  38   21   39 1
  39   21   40 1
  40   22   23 1
  41   22   41 1
  42   22   42 1
  43   23   24 1
  44   23   26 1
  45   24   25 1
  46   24   43 1
  47   24   44 1
  48   25   45 1
  49   25   46 1
  50   26   47 1
  51   26   48 1
  52   26   49 1

#	End of record

