#	Name: ASD01881505
#	Creating user name:	WinNT
#	Creation time:	15. 06. 2019 19:42

#	Modifying user name:	WinNT
#	Modification time:	15. 06. 2019 19:42

#	Program:	/corina/corina34_cracker 3.40 0067  02.08.2006

@<TRIPOS>MOLECULE
ASD01881505
  70   74    0    0    0
SMALL
NO_CHARGES


@<TRIPOS>ATOM
   1 F1             1.2432    -5.9124    -7.4516 F       
   2 C2            -0.0167     1.3792     0.0096 C.ar    
   3 C3             0.0021    -0.0041     0.0020 C.ar    
   4 C4             1.2087    -0.6842    -0.0132 C.ar    
   5 C5             2.3920     0.0166    -0.0208 C.ar    
   6 C6             2.3846     1.4137    -0.0132 C.ar    
   7 C7             1.1648     2.0919     0.0022 C.ar    
   8 C8             3.8409    -0.4021    -0.0369 C.3     
   9 N9             4.6266     0.8371    -0.0378 N.am    
  10 C10            3.7832     1.8837    -0.0241 C.2     
  11 C11            6.0892     0.9201    -0.0514 C.3     
  12 C12            6.5845     0.9567    -1.4985 C.3     
  13 C13            8.0997     1.1686    -1.5137 C.3     
  14 C14            8.5950     1.2052    -2.9609 C.3     
  15 C15            8.2583    -0.1193    -3.6488 C.3     
  16 C16            6.7431    -0.3312    -3.6336 C.3     
  17 C17            6.2478    -0.3678    -2.1865 C.3     
  18 O18            4.1240     3.0505    -0.0207 O.2     
  19 C19            1.1382     3.5987     0.0100 C.3     
  20 C20           -3.1234    -1.6962    -1.4217 C.3     
  21 C21           -1.7468    -1.0257    -1.4286 C.3     
  22 C22           -1.2939    -0.7731     0.0108 C.3     
  23 C23           -3.5440    -2.0014    -2.8611 C.3     
  24 N24           -2.5518    -2.8861    -3.4852 N.3     
  25 C25           -1.2322    -2.2447    -3.5459 C.3     
  26 C26           -2.9921    -3.3118    -4.8204 C.3     
  27 C27           -1.8569    -4.0087    -5.5253 C.ar    
  28 C28           -1.6983    -5.3758    -5.3949 C.ar    
  29 C29           -0.6579    -6.0160    -6.0412 C.ar    
  30 C30           -0.7426    -1.9467    -2.1269 C.3     
  31 C31           -0.9783    -3.2811    -6.3063 C.ar    
  32 C32            0.0625    -3.9192    -6.9538 C.ar    
  33 C33            0.2258    -5.2876    -6.8194 C.ar    
  34 H34           -0.9607     1.9038     0.0169 H       
  35 H35            1.2202    -1.7641    -0.0188 H       
  36 H36            4.0706    -0.9906     0.8513 H       
  37 H37            4.0535    -0.9810    -0.9357 H       
  38 H38            6.4065     1.8264     0.4643 H       
  39 H39            6.5072     0.0493     0.4538 H       
  40 H40            6.0978     1.7754    -2.0285 H       
  41 H41            8.3395     2.1121    -1.0236 H       
  42 H42            8.5864     0.3498    -0.9837 H       
  43 H43            8.1083     2.0239    -3.4909 H       
  44 H44            9.6745     1.3561    -2.9717 H       
  45 H45            8.6112    -0.0932    -4.6798 H       
  46 H46            8.7450    -0.9380    -3.1188 H       
  47 H47            6.2564     0.4876    -4.1636 H       
  48 H48            6.5033    -1.2747    -4.1237 H       
  49 H49            6.7345    -1.1865    -1.6565 H       
  50 H50            5.1684    -0.5187    -2.1756 H       
  51 H51            1.1217     3.9671    -1.0157 H       
  52 H52            0.2470     3.9436     0.5344 H       
  53 H53            2.0266     3.9751     0.5171 H       
  54 H54           -3.0731    -2.6246    -0.8527 H       
  55 H55           -3.8518    -1.0271    -0.9638 H       
  56 H56           -1.8061    -0.0777    -1.9634 H       
  57 H57           -1.1471    -1.7267     0.5181 H       
  58 H58           -2.0553    -0.1960     0.5354 H       
  59 H59           -4.5174    -2.4919    -2.8588 H       
  60 H60           -3.6074    -1.0713    -3.4259 H       
  61 H61           -0.5266    -2.9118    -4.0410 H       
  62 H62           -1.3065    -1.3134    -4.1075 H       
  63 H63           -3.8348    -3.9964    -4.7240 H       
  64 H64           -3.2972    -2.4391    -5.3978 H       
  65 H65           -2.3875    -5.9437    -4.7876 H       
  66 H66           -0.5340    -7.0840    -5.9389 H       
  67 H67            0.2299    -1.4566    -2.1729 H       
  68 H68           -0.6548    -2.8790    -1.5690 H       
  69 H69           -1.1057    -2.2138    -6.4107 H       
  70 H70            0.7483    -3.3508    -7.5645 H       
@<TRIPOS>BOND
   1    1   33 1
   2    2    3 ar
   3    2    7 ar
   4    2   34 1
   5    3    4 ar
   6    3   22 1
   7    4    5 ar
   8    4   35 1
   9    5    6 ar
  10    5    8 1
  11    6    7 ar
  12    6   10 1
  13    7   19 1
  14    8    9 1
  15    8   36 1
  16    8   37 1
  17    9   10 am
  18    9   11 1
  19   10   18 2
  20   11   12 1
  21   11   38 1
  22   11   39 1
  23   12   13 1
  24   12   17 1
  25   12   40 1
  26   13   14 1
  27   13   41 1
  28   13   42 1
  29   14   15 1
  30   14   43 1
  31   14   44 1
  32   15   16 1
  33   15   45 1
  34   15   46 1
  35   16   17 1
  36   16   47 1
  37   16   48 1
  38   17   49 1
  39   17   50 1
  40   19   51 1
  41   19   52 1
  42   19   53 1
  43   20   21 1
  44   20   23 1
  45   20   54 1
  46   20   55 1
  47   21   22 1
  48   21   30 1
  49   21   56 1
  50   22   57 1
  51   22   58 1
  52   23   24 1
  53   23   59 1
  54   23   60 1
  55   24   25 1
  56   24   26 1
  57   25   30 1
  58   25   61 1
  59   25   62 1
  60   26   27 1
  61   26   63 1
  62   26   64 1
  63   27   28 ar
  64   27   31 ar
  65   28   29 ar
  66   28   65 1
  67   29   33 ar
  68   29   66 1
  69   30   67 1
  70   30   68 1
  71   31   32 ar
  72   31   69 1
  73   32   33 ar
  74   32   70 1

#	End of record

