#	Name: ASD01913243
#	Creating user name:	WinNT
#	Creation time:	15. 06. 2019 20:01

#	Modifying user name:	WinNT
#	Modification time:	15. 06. 2019 20:01

#	Program:	/corina/corina34_cracker 3.40 0067  02.08.2006

@<TRIPOS>MOLECULE
ASD01913243
  44   47    0    0    0
SMALL
NO_CHARGES


@<TRIPOS>ATOM
   1 C1             0.1503     1.3708     1.4504 C.ar    
   2 C2             0.1686    -0.0120     1.4390 C.ar    
   3 N3             1.2797    -0.6723     1.1852 N.ar    
   4 C4             2.4220    -0.0412     0.9311 C.ar    
   5 C5             2.4743     1.3552     0.9267 C.ar    
   6 C6             1.3208     2.0710     1.1903 C.ar    
   7 C7             3.6073    -0.7979     0.6606 C.1     
   8 C8             4.5790    -1.4182     0.4388 C.1     
   9 C9             5.7643    -2.1749     0.1683 C.ar    
  10 C10            6.9692    -1.5183    -0.0998 C.ar    
  11 C11            8.1123    -2.2471    -0.3612 C.ar    
  12 C12            8.0744    -3.6273    -0.3599 C.ar    
  13 C13            6.8775    -4.2969    -0.0938 C.ar    
  14 C14            5.7212    -3.5694     0.1771 C.ar    
  15 C15            7.0202    -0.0122    -0.1038 C.3     
  16 C16            6.8397    -5.7751    -0.0941 C.2     
  17 O17            7.8718    -6.4094    -0.1931 O.2     
  18 N18            5.6608    -6.4191     0.0155 N.am    
  19 C19            5.4440    -7.8663    -0.0787 C.3     
  20 C20            3.9695    -8.1218     0.1056 C.ar    
  21 C21            3.3280    -6.9146     0.2992 C.ar    
  22 C22            4.3505    -5.8072     0.2579 C.3     
  23 C23            3.2410    -9.2991     0.1062 C.ar    
  24 C24            1.8735    -9.2677     0.2998 C.ar    
  25 C25            1.2312    -8.0588     0.4936 C.ar    
  26 C26            1.9577    -6.8838     0.4939 C.ar    
  27 H27           -0.7677     1.9015     1.6554 H       
  28 H28           -0.7408    -0.5581     1.6414 H       
  29 H29            3.4022     1.8680     0.7207 H       
  30 H30            1.3301     3.1510     1.1935 H       
  31 H31            9.0404    -1.7351    -0.5680 H       
  32 H32            8.9725    -4.1908    -0.5656 H       
  33 H33            4.7935    -4.0822     0.3838 H       
  34 H34            7.2582     0.3460     0.8978 H       
  35 H35            7.7874     0.3235    -0.8016 H       
  36 H36            6.0519     0.3833    -0.4106 H       
  37 H37            5.7614    -8.2245    -1.0580 H       
  38 H38            6.0077    -8.3759     0.7027 H       
  39 H39            4.3552    -5.2731     1.2081 H       
  40 H40            4.1159    -5.1179    -0.5532 H       
  41 H41            3.7425   -10.2436    -0.0452 H       
  42 H42            1.3065   -10.1868     0.2993 H       
  43 H43            0.1622    -8.0332     0.6450 H       
  44 H44            1.4557    -5.9396     0.6453 H       
@<TRIPOS>BOND
   1    1    2 ar
   2    1    6 ar
   3    1   27 1
   4    2    3 ar
   5    2   28 1
   6    3    4 ar
   7    4    5 ar
   8    4    7 1
   9    5    6 ar
  10    5   29 1
  11    6   30 1
  12    7    8 3
  13    8    9 1
  14    9   10 ar
  15    9   14 ar
  16   10   11 ar
  17   10   15 1
  18   11   12 ar
  19   11   31 1
  20   12   13 ar
  21   12   32 1
  22   13   14 ar
  23   13   16 1
  24   14   33 1
  25   15   34 1
  26   15   35 1
  27   15   36 1
  28   16   17 2
  29   16   18 am
  30   18   19 1
  31   18   22 1
  32   19   20 1
  33   19   37 1
  34   19   38 1
  35   20   21 ar
  36   20   23 ar
  37   21   22 1
  38   21   26 ar
  39   22   39 1
  40   22   40 1
  41   23   24 ar
  42   23   41 1
  43   24   25 ar
  44   24   42 1
  45   25   26 ar
  46   25   43 1
  47   26   44 1

#	End of record

