#	Name: ASD01914454
#	Creating user name:	WinNT
#	Creation time:	15. 06. 2019 20:03

#	Modifying user name:	WinNT
#	Modification time:	15. 06. 2019 20:03

#	Program:	/corina/corina34_cracker 3.40 0067  02.08.2006

@<TRIPOS>MOLECULE
ASD01914454
  41   43    0    0    0
SMALL
NO_CHARGES


@<TRIPOS>ATOM
   1 C1            -0.4816     0.9736    -0.3195 C.ar    
   2 C2            -0.2429    -0.3857    -0.2533 C.ar    
   3 C3             0.5720     1.8673    -0.2664 C.ar    
   4 C4             1.8656     1.4002    -0.1454 C.ar    
   5 C5             2.1082     0.0329    -0.0779 C.ar    
   6 C6             1.0514    -0.8628    -0.1339 C.ar    
   7 N7             3.4258    -0.4198     0.0517 N.am    
   8 C8             3.7138    -1.8425    -0.1757 C.3     
   9 S9             4.6407     0.6306     0.4555 S.o2    
  10 C10            5.0733    -2.1829     0.3783 C.2     
  11 N11            6.1352    -2.2685    -0.4472 N.am    
  12 O12            5.2118    -2.3798     1.5670 O.2     
  13 C13            7.4155    -2.4736     0.0788 C.ar    
  14 C14            5.2246     1.2800    -1.1345 C.3     
  15 O15            3.9893     1.6497     1.2014 O.2     
  16 O16            5.6327    -0.1935     1.0521 O.2     
  17 C17            1.2769    -2.3505    -0.0739 C.3     
  18 C18            7.5870    -3.2758     1.1992 C.ar    
  19 C19            8.8519    -3.4766     1.7167 C.ar    
  20 C20            9.9473    -2.8801     1.1205 C.ar    
  21 C21            9.7803    -2.0798     0.0034 C.ar    
  22 C22            8.5178    -1.8799    -0.5221 C.ar    
  23 C23            2.6374    -2.6607     0.5495 C.3     
  24 Cl24          11.1585    -1.3327    -0.7421 Cl      
  25 H25           -1.4933     1.3388    -0.4175 H       
  26 H26           -1.0698    -1.0792    -0.2945 H       
  27 H27            0.3834     2.9294    -0.3197 H       
  28 H28            2.6895     2.0973    -0.1037 H       
  29 H29            3.6858    -2.0586    -1.2437 H       
  30 H30            6.0119    -2.1880    -1.4060 H       
  31 H31            4.4514     1.9087    -1.5762 H       
  32 H32            6.1269     1.8707    -0.9764 H       
  33 H33            5.4463     0.4507    -1.8063 H       
  34 H34            0.4922    -2.8100     0.5271 H       
  35 H35            1.2409    -2.7613    -1.0829 H       
  36 H36            6.7319    -3.7420     1.6660 H       
  37 H37            8.9853    -4.1002     2.5883 H       
  38 H38           10.9351    -3.0385     1.5272 H       
  39 H39            8.3875    -1.2555    -1.3936 H       
  40 H40            2.8538    -3.7238     0.4438 H       
  41 H41            2.6244    -2.3921     1.6059 H       
@<TRIPOS>BOND
   1    1    2 ar
   2    1    3 ar
   3    1   25 1
   4    2    6 ar
   5    2   26 1
   6    3    4 ar
   7    3   27 1
   8    4    5 ar
   9    4   28 1
  10    5    6 ar
  11    5    7 1
  12    6   17 1
  13    7    8 1
  14    7    9 am
  15    8   10 1
  16    8   23 1
  17    8   29 1
  18    9   14 1
  19    9   15 2
  20    9   16 2
  21   10   11 am
  22   10   12 2
  23   11   13 1
  24   11   30 1
  25   13   18 ar
  26   13   22 ar
  27   14   31 1
  28   14   32 1
  29   14   33 1
  30   17   23 1
  31   17   34 1
  32   17   35 1
  33   18   19 ar
  34   18   36 1
  35   19   20 ar
  36   19   37 1
  37   20   21 ar
  38   20   38 1
  39   21   22 ar
  40   21   24 1
  41   22   39 1
  42   23   40 1
  43   23   41 1

#	End of record

