#	Name: ASD04882410
#	Creating user name:	WinNT
#	Creation time:	15. 06. 2019 20:54

#	Modifying user name:	WinNT
#	Modification time:	15. 06. 2019 20:54

#	Program:	/corina/corina34_cracker 3.40 0067  02.08.2006

@<TRIPOS>MOLECULE
ASD04882410
  85   90    0    0    0
SMALL
NO_CHARGES


@<TRIPOS>ATOM
   1 C1            -0.0817     1.3131     0.0765 C.ar    
   2 C2            -0.0021    -0.0820     0.0521 C.ar    
   3 C3            -1.1631    -0.8460     0.0210 C.ar    
   4 C4            -2.3956    -0.2313     0.0136 C.ar    
   5 C5            -2.4823     1.1635     0.0374 C.ar    
   6 C6            -1.3166     1.9337     0.0754 C.ar    
   7 N7             1.2419    -0.7076     0.0585 N.3     
   8 C8             1.3873    -1.5787     1.2331 C.3     
   9 C9             1.4580    -1.4628    -1.1836 C.3     
  10 C10            2.8638    -2.0680    -1.1715 C.3     
  11 N11            3.0091    -2.9391     0.0032 N.3     
  12 C12            2.7930    -2.1839     1.2452 C.3     
  13 C13           -3.8026     1.8217     0.0286 C.2     
  14 O14           -3.8772     3.0352     0.0494 O.2     
  15 N15            4.3081    -3.5923     0.0098 N.3     
  16 N16           -4.9262     1.0779    -0.0024 N.am    
  17 C17           -6.2373     1.7315    -0.0111 C.3     
  18 C18           -7.3369     0.6684    -0.0475 C.3     
  19 C19           -8.7062     1.3510    -0.0567 C.3     
  20 N20            1.0894     2.0818     0.1077 N.am    
  21 C21            1.0651     3.3260     0.6254 C.2     
  22 O22            0.0539     3.7442     1.1563 O.2     
  23 C23            2.2641     4.1799     0.5481 C.2     
  24 N24            3.4584     3.8476    -0.0128 N.2     
  25 C25            4.2672     4.8568     0.1124 C.2     
  26 O26            3.6343     5.8544     0.7457 O.3     
  27 C27            2.3831     5.4512     1.0192 C.2     
  28 N28           -9.7591     0.3330    -0.0915 N.am    
  29 C29          -10.3219    -0.2137     0.9999 C.2     
  30 C30          -10.3393    -0.2164    -1.3226 C.3     
  31 C31          -11.0540    -1.5179    -0.8962 C.3     
  32 C32          -11.3629    -1.2334     0.5931 C.3     
  33 O33          -10.0363     0.0688     2.1442 O.2     
  34 C34            5.6921     4.8988    -0.3765 C.3     
  35 C35            6.0555     5.9738    -1.4028 C.3     
  36 C36            6.5471     6.0970     0.0408 C.3     
  37 C37            4.4899    -4.3330     1.1800 C.ar    
  38 C38            5.5553    -4.0494     2.0248 C.ar    
  39 C39            3.6021    -5.3512     1.5045 C.ar    
  40 C40            3.7848    -6.0815     2.6621 C.ar    
  41 C41            4.8498    -5.8000     3.4984 C.ar    
  42 C42            5.7322    -4.7838     3.1811 C.ar    
  43 C43            6.5175    -2.9421     1.6798 C.3     
  44 C44            4.4786    -4.4372    -1.1797 C.3     
  45 H45           -1.0985    -1.9239     0.0022 H       
  46 H46           -3.2957    -0.8276    -0.0109 H       
  47 H47           -1.3806     3.0117     0.0943 H       
  48 H48            1.2353    -0.9941     2.1404 H       
  49 H49            0.6477    -2.3780     1.1869 H       
  50 H50            0.7192    -2.2608    -1.2572 H       
  51 H51            1.3576    -0.7937    -2.0381 H       
  52 H52            3.0158    -2.6526    -2.0788 H       
  53 H53            3.6034    -1.2687    -1.1252 H       
  54 H54            3.5319    -1.3859     1.3189 H       
  55 H55            2.8935    -2.8530     2.0998 H       
  56 H56           -4.8667     0.1099    -0.0189 H       
  57 H57           -6.3472     2.3374     0.8883 H       
  58 H58           -6.3194     2.3695    -0.8912 H       
  59 H59           -7.2269     0.0626    -0.9470 H       
  60 H60           -7.2548     0.0305     0.8325 H       
  61 H61           -8.8161     1.9568     0.8428 H       
  62 H62           -8.7883     1.9889    -0.9367 H       
  63 H63            1.9175     1.7186    -0.2432 H       
  64 H64            1.6188     6.0242     1.5231 H       
  65 H65          -11.0564     0.4858    -1.7477 H       
  66 H66           -9.5530    -0.4370    -2.0444 H       
  67 H67          -11.9739    -1.6615    -1.4631 H       
  68 H68          -10.3936    -2.3785    -1.0027 H       
  69 H69          -11.2580    -2.1427     1.1849 H       
  70 H70          -12.3652    -0.8193     0.7025 H       
  71 H71            6.1881     3.9321    -0.4633 H       
  72 H72            6.7907     5.7144    -2.1645 H       
  73 H73            5.2639     6.6507    -1.7244 H       
  74 H74            6.0790     6.8549     0.6690 H       
  75 H75            7.6059     5.9187     0.2288 H       
  76 H76            2.7699    -5.5711     0.8522 H       
  77 H77            3.0951    -6.8732     2.9149 H       
  78 H78            4.9900    -6.3722     4.4035 H       
  79 H79            6.5628    -4.5666     3.8363 H       
  80 H80            6.1193    -1.9913     2.0341 H       
  81 H81            7.4785    -3.1340     2.1570 H       
  82 H82            6.6506    -2.9000     0.5988 H       
  83 H83            4.4914    -3.8106    -2.0716 H       
  84 H84            5.4191    -4.9832    -1.1058 H       
  85 H85            3.6519    -5.1446    -1.2445 H       
@<TRIPOS>BOND
   1    1    2 ar
   2    1   20 1
   3    1    6 ar
   4    2    3 ar
   5    2    7 1
   6    3    4 ar
   7    3   45 1
   8    4    5 ar
   9    4   46 1
  10    5    6 ar
  11    5   13 1
  12    6   47 1
  13    7    8 1
  14    7    9 1
  15    8   12 1
  16    8   48 1
  17    8   49 1
  18    9   10 1
  19    9   50 1
  20    9   51 1
  21   10   11 1
  22   10   52 1
  23   10   53 1
  24   11   12 1
  25   11   15 1
  26   12   54 1
  27   12   55 1
  28   13   14 2
  29   13   16 am
  30   15   37 1
  31   15   44 1
  32   16   17 1
  33   16   56 1
  34   17   18 1
  35   17   57 1
  36   17   58 1
  37   18   19 1
  38   18   59 1
  39   18   60 1
  40   19   28 1
  41   19   61 1
  42   19   62 1
  43   20   21 am
  44   20   63 1
  45   21   22 2
  46   21   23 1
  47   23   24 1
  48   23   27 2
  49   24   25 2
  50   25   26 1
  51   25   34 1
  52   26   27 1
  53   27   64 1
  54   28   29 am
  55   28   30 1
  56   29   33 2
  57   29   32 1
  58   30   31 1
  59   30   65 1
  60   30   66 1
  61   31   32 1
  62   31   67 1
  63   31   68 1
  64   32   69 1
  65   32   70 1
  66   34   35 1
  67   34   36 1
  68   34   71 1
  69   35   36 1
  70   35   72 1
  71   35   73 1
  72   36   74 1
  73   36   75 1
  74   37   38 ar
  75   37   39 ar
  76   38   43 1
  77   38   42 ar
  78   39   40 ar
  79   39   76 1
  80   40   41 ar
  81   40   77 1
  82   41   42 ar
  83   41   78 1
  84   42   79 1
  85   43   80 1
  86   43   81 1
  87   43   82 1
  88   44   83 1
  89   44   84 1
  90   44   85 1

#	End of record

