#	Name: ASD03092010
#	Creating user name:	WinNT
#	Creation time:	15. 06. 2019 20:31

#	Modifying user name:	WinNT
#	Modification time:	15. 06. 2019 20:31

#	Program:	/corina/corina34_cracker 3.40 0067  02.08.2006

@<TRIPOS>MOLECULE
ASD03092010
  49   52    0    0    0
SMALL
NO_CHARGES


@<TRIPOS>ATOM
   1 C1            -0.0967     1.2669     0.5625 C.ar    
   2 C2            -0.0186    -0.0028    -0.0010 C.ar    
   3 C3            -1.1515    -0.5922    -0.5464 C.ar    
   4 C4            -2.3580     0.0754    -0.5307 C.ar    
   5 C5            -2.4431     1.3479     0.0351 C.ar    
   6 C6            -1.3049     1.9426     0.5789 C.ar    
   7 C7            -3.7366     2.0660     0.0546 C.2     
   8 C8            -3.9091     3.4181     0.1396 C.2     
   9 C9            -5.2860     3.6756     0.1266 C.2     
  10 N10           -5.9217     2.5303     0.0376 N.2     
  11 N11           -4.9746     1.4998    -0.0150 N.pl3   
  12 C12           -5.2634     0.0672    -0.1172 C.3     
  13 N13           -5.8831     4.9400     0.1973 N.pl3   
  14 C14           -7.2675     5.0687     0.0487 C.ar    
  15 C15           -7.9302     6.1489     0.6166 C.ar    
  16 C16           -9.2996     6.2741     0.4677 C.ar    
  17 C17          -10.0094     5.3217    -0.2480 C.ar    
  18 C18           -9.3491     4.2446    -0.8138 C.ar    
  19 C19           -7.9809     4.1193    -0.6720 C.ar    
  20 C20           -5.4627    -0.3031    -1.5643 C.2     
  21 O21           -5.7401    -1.5728    -1.9001 O.3     
  22 C22           -5.9196    -1.8568    -3.3127 C.3     
  23 C23           -6.2264    -3.3442    -3.4988 C.3     
  24 O24            1.0057     1.8608     1.0965 O.3     
  25 C25            2.1156     1.0075     1.3958 C.3     
  26 C26            2.3500     0.0843     0.1924 C.3     
  27 O27            1.1604    -0.6829    -0.0221 O.3     
  28 O28           -5.3727     0.5428    -2.4223 O.2     
  29 F29          -11.3469     5.4449    -0.3929 F       
  30 F30           -9.9459     7.3241     1.0199 F       
  31 H31           -1.0873    -1.5770    -0.9849 H       
  32 H32           -3.2365    -0.3865    -0.9564 H       
  33 H33           -1.3672     2.9275     1.0177 H       
  34 H34           -3.1241     4.1569     0.2052 H       
  35 H35           -4.4285    -0.5018     0.2918 H       
  36 H36           -6.1690    -0.1618     0.4445 H       
  37 H37           -5.3364     5.7267     0.3495 H       
  38 H38           -7.3770     6.8901     1.1742 H       
  39 H39           -9.9039     3.5036    -1.3702 H       
  40 H40           -7.4668     3.2786    -1.1143 H       
  41 H41           -6.7479    -1.2637    -3.7002 H       
  42 H42           -5.0073    -1.6037    -3.8529 H       
  43 H43           -6.3611    -3.5574    -4.5592 H       
  44 H44           -5.3981    -3.9373    -3.1113 H       
  45 H45           -7.1386    -3.5973    -2.9586 H       
  46 H46            3.0055     1.6109     1.5749 H       
  47 H47            1.8920     0.4099     2.2795 H       
  48 H48            2.5666     0.6821    -0.6929 H       
  49 H49            3.1860    -0.5839     0.3991 H       
@<TRIPOS>BOND
   1    1    2 ar
   2    1   24 1
   3    1    6 ar
   4    2    3 ar
   5    2   27 1
   6    3    4 ar
   7    3   31 1
   8    4    5 ar
   9    4   32 1
  10    5    6 ar
  11    5    7 1
  12    6   33 1
  13    7    8 2
  14    7   11 1
  15    8    9 1
  16    8   34 1
  17    9   10 2
  18    9   13 1
  19   10   11 1
  20   11   12 1
  21   12   20 1
  22   12   35 1
  23   12   36 1
  24   13   14 1
  25   13   37 1
  26   14   15 ar
  27   14   19 ar
  28   15   16 ar
  29   15   38 1
  30   16   17 ar
  31   16   30 1
  32   17   18 ar
  33   17   29 1
  34   18   19 ar
  35   18   39 1
  36   19   40 1
  37   20   21 1
  38   20   28 2
  39   21   22 1
  40   22   23 1
  41   22   41 1
  42   22   42 1
  43   23   43 1
  44   23   44 1
  45   23   45 1
  46   24   25 1
  47   25   26 1
  48   25   46 1
  49   25   47 1
  50   26   27 1
  51   26   48 1
  52   26   49 1

#	End of record

