#	Name: ASD00170680
#	Creating user name:	WinNT
#	Creation time:	15. 06. 2019 18:32

#	Modifying user name:	WinNT
#	Modification time:	15. 06. 2019 18:32

#	Program:	/corina/corina34_cracker 3.40 0067  02.08.2006

@<TRIPOS>MOLECULE
ASD00170680
  35   36    0    0    0
SMALL
NO_CHARGES


@<TRIPOS>ATOM
   1 C1             0.0783     0.9061     0.1537 C.3     
   2 C2             0.4902    -0.5227    -0.2068 C.3     
   3 C3             0.9842    -0.5613    -1.6543 C.3     
   4 C4            -0.1620    -0.2579    -2.5845 C.2     
   5 C5            -0.9844    -1.1832    -3.0537 C.2     
   6 S6            -2.1957    -0.4707    -4.1039 S.3     
   7 C7            -1.5656     1.0990    -3.8934 C.2     
   8 C8            -0.4788     1.0758    -3.0504 C.2     
   9 C9             0.2804     2.2679    -2.6733 C.2     
  10 O10           -0.1163     2.9819    -1.7701 O.2     
  11 C11            1.5296     2.6060    -3.3889 C.ar    
  12 C12            2.2134     3.7849    -3.0863 C.ar    
  13 C13            3.3777     4.0949    -3.7569 C.ar    
  14 C14            3.8690     3.2393    -4.7291 C.ar    
  15 C15            3.1949     2.0682    -5.0337 C.ar    
  16 C16            2.0327     1.7448    -4.3657 C.ar    
  17 Cl17           5.3352     3.6365    -5.5696 Cl      
  18 N18           -2.0784     2.2368    -4.4827 N.pl3   
  19 C19            1.6119    -0.9812     0.7273 C.3     
  20 H20            0.9045     1.5858    -0.0547 H       
  21 H21           -0.7886     1.1951    -0.4404 H       
  22 H22           -0.1743     0.9551     1.2128 H       
  23 H23           -0.3675    -1.1865    -0.0977 H       
  24 H24            1.7691     0.1826    -1.7903 H       
  25 H25            1.3801    -1.5522    -1.8768 H       
  26 H26           -0.9181    -2.2359    -2.8215 H       
  27 H27            1.8311     4.4530    -2.3287 H       
  28 H28            3.9074     5.0068    -3.5240 H       
  29 H29            3.5828     1.4049    -5.7926 H       
  30 H30            1.5081     0.8312    -4.6037 H       
  31 H31           -2.8962     2.1875    -5.0020 H       
  32 H32           -1.6211     3.0857    -4.3775 H       
  33 H33            1.2599    -0.9537     1.7586 H       
  34 H34            1.9052    -1.9991     0.4705 H       
  35 H35            2.4695    -0.3174     0.6183 H       
@<TRIPOS>BOND
   1    1    2 1
   2    1   20 1
   3    1   21 1
   4    1   22 1
   5    2    3 1
   6    2   19 1
   7    2   23 1
   8    3    4 1
   9    3   24 1
  10    3   25 1
  11    4    5 2
  12    4    8 1
  13    5    6 1
  14    5   26 1
  15    6    7 1
  16    7    8 2
  17    7   18 1
  18    8    9 1
  19    9   10 2
  20    9   11 1
  21   11   12 ar
  22   11   16 ar
  23   12   13 ar
  24   12   27 1
  25   13   14 ar
  26   13   28 1
  27   14   15 ar
  28   14   17 1
  29   15   16 ar
  30   15   29 1
  31   16   30 1
  32   18   31 1
  33   18   32 1
  34   19   33 1
  35   19   34 1
  36   19   35 1

#	End of record

