#	Name: ASD01910229
#	Creating user name:	WinNT
#	Creation time:	15. 06. 2019 19:55

#	Modifying user name:	WinNT
#	Modification time:	15. 06. 2019 19:55

#	Program:	/corina/corina34_cracker 3.40 0067  02.08.2006

@<TRIPOS>MOLECULE
ASD01910229
  47   50    0    0    0
SMALL
NO_CHARGES


@<TRIPOS>ATOM
   1 C1             0.1295     1.2058    -0.0631 C.2     
   2 C2             1.2918     2.1649    -0.0442 C.3     
   3 C3             1.2296     3.0672    -1.2787 C.3     
   4 C4             2.4277     4.0195    -1.2775 C.3     
   5 C5             2.3701     4.9045    -0.0284 C.3     
   6 N6             2.2832     4.0425     1.1583 N.am    
   7 C7             1.2213     3.0288     1.2189 C.3     
   8 C8             3.1608     4.1790     2.1720 C.2     
   9 C9             2.9786     3.4038     3.4161 C.2     
  10 O10            4.1023     4.9403     2.0625 O.2     
  11 N11            0.2002    -0.1018    -0.0850 N.2     
  12 C12           -1.0809    -0.5347    -0.0945 C.2     
  13 N13           -1.8467     0.5253    -0.0781 N.2     
  14 O14           -1.1673     1.5299    -0.0549 O.3     
  15 C15           -1.5331    -1.9477    -0.1197 C.ar    
  16 C16           -2.8944    -2.2457    -0.1270 C.ar    
  17 C17           -3.3104    -3.5608    -0.1510 C.ar    
  18 C18           -2.3769    -4.5847    -0.1678 C.ar    
  19 C19           -1.0224    -4.2929    -0.1606 C.ar    
  20 C20           -0.5976    -2.9804    -0.1420 C.ar    
  21 F21           -2.7886    -5.8713    -0.1908 F       
  22 N22            1.9486     2.6398     3.7204 N.2     
  23 N23            2.1173     2.1138     4.8803 N.pl3   
  24 C24            3.2936     2.5149     5.4084 C.2     
  25 C25            3.8796     3.3354     4.5051 C.2     
  26 C26            1.1699     1.2088     5.5357 C.3     
  27 C27            3.8525     2.1186     6.7506 C.3     
  28 H28            2.2264     1.6040    -0.0502 H       
  29 H29            1.2548     2.4532    -2.1790 H       
  30 H30            0.3060     3.6456    -1.2596 H       
  31 H31            3.3518     3.4416    -1.2716 H       
  32 H32            2.3954     4.6459    -2.1689 H       
  33 H33            3.2712     5.5151     0.0287 H       
  34 H34            1.4922     5.5487    -0.0771 H       
  35 H35            0.2497     3.5201     1.2718 H       
  36 H36            1.3645     2.4018     2.0989 H       
  37 H37           -3.6226    -1.4483    -0.1136 H       
  38 H38           -4.3652    -3.7927    -0.1563 H       
  39 H39           -0.2981    -5.0939    -0.1738 H       
  40 H40            0.4583    -2.7538    -0.1365 H       
  41 H41            4.8312     3.8374     4.5988 H       
  42 H42            1.4043     0.1793     5.2653 H       
  43 H43            1.2438     1.3263     6.6169 H       
  44 H44            0.1566     1.4476     5.2127 H       
  45 H45            4.4563     1.2178     6.6411 H       
  46 H46            4.4724     2.9266     7.1390 H       
  47 H47            3.0329     1.9248     7.4426 H       
@<TRIPOS>BOND
   1    1   11 2
   2    1    2 1
   3    1   14 1
   4    2    3 1
   5    2    7 1
   6    2   28 1
   7    3    4 1
   8    3   29 1
   9    3   30 1
  10    4    5 1
  11    4   31 1
  12    4   32 1
  13    5    6 1
  14    5   33 1
  15    5   34 1
  16    6    7 1
  17    6    8 am
  18    7   35 1
  19    7   36 1
  20    8    9 1
  21    8   10 2
  22    9   22 2
  23    9   25 1
  24   11   12 1
  25   12   13 2
  26   12   15 1
  27   13   14 1
  28   15   16 ar
  29   15   20 ar
  30   16   17 ar
  31   16   37 1
  32   17   18 ar
  33   17   38 1
  34   18   19 ar
  35   18   21 1
  36   19   20 ar
  37   19   39 1
  38   20   40 1
  39   22   23 1
  40   23   24 1
  41   23   26 1
  42   24   25 2
  43   24   27 1
  44   25   41 1
  45   26   42 1
  46   26   43 1
  47   26   44 1
  48   27   45 1
  49   27   46 1
  50   27   47 1

#	End of record

