#	Name: ASD09116360
#	Creating user name:	WinNT
#	Creation time:	15. 06. 2019 21:21

#	Modifying user name:	WinNT
#	Modification time:	15. 06. 2019 21:21

#	Program:	/corina/corina34_cracker 3.40 0067  02.08.2006

@<TRIPOS>MOLECULE
ASD09116360
  77   83    0    0    0
SMALL
NO_CHARGES


@<TRIPOS>ATOM
   1 N1            -0.0598     1.5446    -0.5748 N.2     
   2 N2            -0.0837     0.2835    -1.1919 N.pl3   
   3 C3             1.1941     1.9268    -0.5334 C.2     
   4 N4             1.9576     0.9785    -1.0889 N.2     
   5 C5             1.2011    -0.0201    -1.4913 C.2     
   6 N6             1.6406    -1.1751    -2.1097 N.pl3   
   7 C7            -1.2096    -0.5017    -1.4464 C.ar    
   8 N8             1.6572     3.1282     0.0030 N.pl3   
   9 C9             3.0333     3.3745     0.0839 C.ar    
  10 C10            3.5118     4.6760     0.0016 C.ar    
  11 C11            3.9187     2.3184     0.2520 C.ar    
  12 C12            5.2766     2.5605     0.3324 C.ar    
  13 C13            5.7566     3.8594     0.2447 C.ar    
  14 C14            4.8701     4.9186     0.0815 C.ar    
  15 N15            7.1339     4.1045     0.3268 N.3     
  16 F16            5.3368     6.1835    -0.0044 F       
  17 N17           -1.1891    -1.3905    -2.4284 N.ar    
  18 N18           -2.2014    -2.1311    -2.7101 N.ar    
  19 C19           -3.3334    -2.0469    -2.0298 C.ar    
  20 C20           -3.4403    -1.1515    -0.9618 C.ar    
  21 C21           -2.3561    -0.3542    -0.6616 C.ar    
  22 C22           -4.5189    -2.8603    -2.3866 C.ar    
  23 C23           -5.7547    -2.2266    -2.5255 C.ar    
  24 C24           -5.8403    -0.7334    -2.3653 C.3     
  25 C25           -5.7923    -0.3276    -0.8947 C.3     
  26 C26           -4.7051    -1.1025    -0.1550 C.3     
  27 C27           -4.4158    -4.2336    -2.5784 C.ar    
  28 C28           -5.5446    -4.9674    -2.8878 C.ar    
  29 C29           -6.7711    -4.3387    -3.0040 C.ar    
  30 C30           -6.8765    -2.9706    -2.8222 C.ar    
  31 C31            7.6518     4.6181    -0.9421 C.3     
  32 C32            9.1555     4.9327    -0.8570 C.3     
  33 C33            9.8501     3.6639    -0.4100 C.3     
  34 C34            9.3074     3.3171     1.0048 C.3     
  35 C35            7.8544     2.9151     0.8230 C.3     
  36 N36           11.2958     3.6937    -0.2339 N.3     
  37 C37           11.6208     2.7137     0.8364 C.3     
  38 C38           10.2695     2.1857     1.3936 C.3     
  39 C39           11.9857     3.3543    -1.4856 C.3     
  40 C40           13.4821     3.6357    -1.3357 C.3     
  41 C41           14.2006     3.2822    -2.6394 C.3     
  42 H42            2.5865    -1.3028    -2.2828 H       
  43 H43            1.0033    -1.8582    -2.3707 H       
  44 H44            1.0261     3.7930     0.3200 H       
  45 H45            2.8228     5.4979    -0.1251 H       
  46 H46            3.5457     1.3071     0.3204 H       
  47 H47            5.9646     1.7385     0.4639 H       
  48 H48           -2.3944     0.3628     0.1452 H       
  49 H49           -5.0052    -0.2700    -2.8905 H       
  50 H50           -6.7747    -0.3809    -2.8021 H       
  51 H51           -5.5836     0.7399    -0.8237 H       
  52 H52           -6.7579    -0.5351    -0.4335 H       
  53 H53           -5.0521    -2.1191     0.0296 H       
  54 H54           -4.5032    -0.6148     0.7987 H       
  55 H55           -3.4581    -4.7242    -2.4856 H       
  56 H56           -5.4692    -6.0340    -3.0395 H       
  57 H57           -7.6516    -4.9186    -3.2380 H       
  58 H58           -7.8374    -2.4860    -2.9132 H       
  59 H59            7.4880     3.8729    -1.7205 H       
  60 H60            7.1123     5.5283    -1.2039 H       
  61 H61            9.5279     5.2353    -1.8357 H       
  62 H62            9.3286     5.7269    -0.1307 H       
  63 H63            9.5986     2.8558    -1.0969 H       
  64 H64            9.3948     4.1679     1.6805 H       
  65 H65            7.4345     2.5977     1.7774 H       
  66 H66            7.7809     2.1062     0.0962 H       
  67 H67           12.2003     1.8887     0.4221 H       
  68 H68           12.1849     3.2033     1.6303 H       
  69 H69           10.3140     2.0662     2.4761 H       
  70 H70            9.9872     1.2503     0.9106 H       
  71 H71           11.8352     2.2980    -1.7086 H       
  72 H72           11.5820     3.9583    -2.2982 H       
  73 H73           13.6326     4.6920    -1.1127 H       
  74 H74           13.8857     3.0317    -0.5230 H       
  75 H75           14.0501     2.2260    -2.8623 H       
  76 H76           13.7970     3.8862    -3.4520 H       
  77 H77           15.2667     3.4827    -2.5325 H       
@<TRIPOS>BOND
   1    1    2 1
   2    1    3 2
   3    2    7 1
   4    2    5 1
   5    3    4 1
   6    3    8 1
   7    4    5 2
   8    5    6 1
   9    6   42 1
  10    6   43 1
  11    7   17 ar
  12    7   21 ar
  13    8    9 1
  14    8   44 1
  15    9   10 ar
  16    9   11 ar
  17   10   14 ar
  18   10   45 1
  19   11   12 ar
  20   11   46 1
  21   12   13 ar
  22   12   47 1
  23   13   14 ar
  24   13   15 1
  25   14   16 1
  26   15   31 1
  27   15   35 1
  28   17   18 ar
  29   18   19 ar
  30   19   20 ar
  31   19   22 1
  32   20   21 ar
  33   20   26 1
  34   21   48 1
  35   22   23 ar
  36   22   27 ar
  37   23   24 1
  38   23   30 ar
  39   24   25 1
  40   24   49 1
  41   24   50 1
  42   25   26 1
  43   25   51 1
  44   25   52 1
  45   26   53 1
  46   26   54 1
  47   27   28 ar
  48   27   55 1
  49   28   29 ar
  50   28   56 1
  51   29   30 ar
  52   29   57 1
  53   30   58 1
  54   31   32 1
  55   31   59 1
  56   31   60 1
  57   32   33 1
  58   32   61 1
  59   32   62 1
  60   33   34 1
  61   33   36 1
  62   33   63 1
  63   34   35 1
  64   34   38 1
  65   34   64 1
  66   35   65 1
  67   35   66 1
  68   36   37 1
  69   36   39 1
  70   37   38 1
  71   37   67 1
  72   37   68 1
  73   38   69 1
  74   38   70 1
  75   39   40 1
  76   39   71 1
  77   39   72 1
  78   40   41 1
  79   40   73 1
  80   40   74 1
  81   41   75 1
  82   41   76 1
  83   41   77 1

#	End of record

