#	Name: ASD02408058
#	Creating user name:	WinNT
#	Creation time:	15. 06. 2019 20:21

#	Modifying user name:	WinNT
#	Modification time:	15. 06. 2019 20:21

#	Program:	/corina/corina34_cracker 3.40 0067  02.08.2006

@<TRIPOS>MOLECULE
ASD02408058
  41   43    0    0    0
SMALL
NO_CHARGES


@<TRIPOS>ATOM
   1 C1            -0.0044     1.3956    -0.0115 C.2     
   2 C2            -0.0014     0.0618    -0.0001 C.2     
   3 C3             1.2642     2.2088    -0.0292 C.3     
   4 C4             1.6755     2.4672    -1.4558 C.2     
   5 N5             2.7923     3.1824    -1.6921 N.am    
   6 N6             0.9405     1.9861    -2.4213 N.2     
   7 C7             1.2574     2.1836    -3.7074 C.2     
   8 C8             2.4069     2.9255    -4.0257 C.2     
   9 C9             3.1904     3.4324    -2.9572 C.2     
  10 N10            0.4673     1.6660    -4.7042 N.pl3   
  11 C11            0.7887     0.3690    -5.3161 C.3     
  12 O12            4.1978     4.0826    -3.1768 O.2     
  13 S13           -1.6571    -0.5316     0.0189 S.3     
  14 C14           -2.2785     1.1138     0.0101 C.2     
  15 C15           -1.2610     1.9761    -0.0119 C.2     
  16 C16           -0.4359    -0.5465    -5.1960 C.3     
  17 N17           -1.6184     0.1865    -5.6697 N.am    
  18 C18           -1.9399     1.4834    -5.0579 C.3     
  19 C19           -0.7184     2.3963    -5.1741 C.3     
  20 C20           -2.3938    -0.3215    -6.6481 C.2     
  21 C21           -3.6729     0.3756    -7.0342 C.3     
  22 O22           -2.0622    -1.3396    -7.2177 O.2     
  23 C23            2.7797     3.1588    -5.3885 C.1     
  24 N24            3.0755     3.3438    -6.4696 N.1     
  25 H25            0.8824    -0.5589    -0.0026 H       
  26 H26            1.0939     3.1587     0.4776 H       
  27 H27            2.0546     1.6603     0.4831 H       
  28 H28            3.3141     3.5205    -0.9475 H       
  29 H29            1.0368     0.5121    -6.3678 H       
  30 H30            1.6344    -0.0811    -4.7961 H       
  31 H31           -3.3240     1.3845     0.0165 H       
  32 H32           -1.4065     3.0462    -0.0210 H       
  33 H33           -0.2883    -1.4369    -5.8072 H       
  34 H34           -0.5769    -0.8341    -4.1542 H       
  35 H35           -2.7855     1.9336    -5.5778 H       
  36 H36           -2.1879     1.3403    -4.0062 H       
  37 H37           -0.8673     3.2862    -4.5625 H       
  38 H38           -0.5750     2.6848    -6.2154 H       
  39 H39           -3.8516     1.2092    -6.3551 H       
  40 H40           -3.5890     0.7496    -8.0546 H       
  41 H41           -4.5031    -0.3280    -6.9723 H       
@<TRIPOS>BOND
   1    1    2 2
   2    1    3 1
   3    1   15 1
   4    2   13 1
   5    2   25 1
   6    3    4 1
   7    3   26 1
   8    3   27 1
   9    4    5 1
  10    4    6 2
  11    5    9 am
  12    5   28 1
  13    6    7 1
  14    7    8 2
  15    7   10 1
  16    8    9 1
  17    8   23 1
  18    9   12 2
  19   10   11 1
  20   10   19 1
  21   11   16 1
  22   11   29 1
  23   11   30 1
  24   13   14 1
  25   14   15 2
  26   14   31 1
  27   15   32 1
  28   16   17 1
  29   16   33 1
  30   16   34 1
  31   17   18 1
  32   17   20 am
  33   18   19 1
  34   18   35 1
  35   18   36 1
  36   19   37 1
  37   19   38 1
  38   20   21 1
  39   20   22 2
  40   21   39 1
  41   21   40 1
  42   21   41 1
  43   23   24 3

#	End of record

