#	Name: ASD01903313
#	Creating user name:	WinNT
#	Creation time:	15. 06. 2019 19:54

#	Modifying user name:	WinNT
#	Modification time:	15. 06. 2019 19:54

#	Program:	/corina/corina34_cracker 3.40 0067  02.08.2006

@<TRIPOS>MOLECULE
ASD01903313
  33   36    0    0    0
SMALL
NO_CHARGES


@<TRIPOS>ATOM
   1 N1            -0.0111     0.9658     0.0074 N.pl3   
   2 H2             0.0021    -0.0041     0.0020 H       
   3 C3             1.1804     1.6756    -0.0002 C.2     
   4 C4            -1.2265     1.6457     0.0168 C.ar    
   5 N5            -1.2379     2.9691     0.0241 N.ar    
   6 C6            -2.3674     3.6519     0.0331 C.ar    
   7 C7            -3.5866     3.0052     0.0354 C.ar    
   8 C8            -3.6205     1.6167     0.0280 C.ar    
   9 C9            -2.4200     0.9269     0.0128 C.ar    
  10 S10            2.7910     0.9614    -0.0194 S.3     
  11 C11            3.5031     2.5667     0.0081 C.2     
  12 C12            2.5028     3.4788    -0.0238 C.2     
  13 N13            1.2830     2.9705     0.0001 N.2     
  14 C14            4.9501     2.9373     0.1090 C.3     
  15 C15            5.5700     3.3709    -1.2291 C.3     
  16 C16            4.5639     4.2831    -1.9561 C.3     
  17 C17            3.8978     5.2631    -1.0402 C.2     
  18 C18            2.8987     4.9172    -0.1779 C.2     
  19 N19            4.1075     6.5815    -0.8899 N.pl3   
  20 N20            3.1629     7.0705     0.0273 N.2     
  21 C21            2.4301     6.0652     0.4497 C.2     
  22 F22           -2.4062    -0.4240     0.0048 F       
  23 H23           -2.3371     4.7315     0.0392 H       
  24 H24           -4.5052     3.5731     0.0432 H       
  25 H25           -4.5618     1.0872     0.0299 H       
  26 H26            5.0514     3.7558     0.8216 H       
  27 H27            5.5043     2.0785     0.4878 H       
  28 H28            6.4950     3.9174    -1.0454 H       
  29 H29            5.7770     2.4922    -1.8400 H       
  30 H30            5.0892     4.8332    -2.7368 H       
  31 H31            3.7990     3.6615    -2.4215 H       
  32 H32            4.7919     7.1041    -1.3364 H       
  33 H33            1.6137     6.1207     1.1545 H       
@<TRIPOS>BOND
   1    1    2 1
   2    1    3 1
   3    1    4 1
   4    3   10 1
   5    3   13 2
   6    4    5 ar
   7    4    9 ar
   8    5    6 ar
   9    6    7 ar
  10    6   23 1
  11    7    8 ar
  12    7   24 1
  13    8    9 ar
  14    8   25 1
  15    9   22 1
  16   10   11 1
  17   11   12 2
  18   11   14 1
  19   12   13 1
  20   12   18 1
  21   14   15 1
  22   14   26 1
  23   14   27 1
  24   15   16 1
  25   15   28 1
  26   15   29 1
  27   16   17 1
  28   16   30 1
  29   16   31 1
  30   17   18 2
  31   17   19 1
  32   18   21 1
  33   19   20 1
  34   19   32 1
  35   20   21 2
  36   21   33 1

#	End of record

