#	Name: ASD01917543
#	Creating user name:	WinNT
#	Creation time:	15. 06. 2019 20:09

#	Modifying user name:	WinNT
#	Modification time:	15. 06. 2019 20:09

#	Program:	/corina/corina34_cracker 3.40 0067  02.08.2006

@<TRIPOS>MOLECULE
ASD01917543
  41   44    0    0    0
SMALL
NO_CHARGES


@<TRIPOS>ATOM
   1 C1            -0.0166     1.3739     0.0096 C.ar    
   2 C2             0.0021    -0.0041     0.0020 C.ar    
   3 N3             1.1431    -0.6676    -0.0124 N.ar    
   4 C4             2.3125    -0.0521    -0.0203 C.ar    
   5 C5             2.3873     1.3278    -0.0131 C.ar    
   6 C6             1.2000     2.0710     0.0017 C.ar    
   7 C7             1.2280     3.5027     0.0087 C.1     
   8 C8             1.2509     4.6765     0.0144 C.1     
   9 C9             1.2789     6.1082     0.0213 C.ar    
  10 C10            0.0864     6.8445     0.0421 C.ar    
  11 C11            2.4953     6.7953     0.0134 C.ar    
  12 N12            2.5201     8.1118     0.0207 N.ar    
  13 C13            1.4135     8.8298     0.0352 C.ar    
  14 C14            0.1689     8.2252     0.0485 C.ar    
  15 C15           -1.0839     9.0625     0.0708 C.3     
  16 C16           -1.0431    11.3501     0.0496 C.2     
  17 N17           -0.8707    10.2906     0.8518 N.am    
  18 C18           -1.4147     9.5793    -1.3427 C.3     
  19 O19           -1.3539    11.0291    -1.2113 O.3     
  20 C20           -2.7974     9.1437    -1.7543 C.ar    
  21 C21           -3.8970     9.8958    -1.3851 C.ar    
  22 C22           -2.9647     7.9953    -2.5055 C.ar    
  23 C23           -4.2322     7.5950    -2.8840 C.ar    
  24 C24           -5.3347     8.3445    -2.5100 C.ar    
  25 C25           -5.1655     9.4973    -1.7620 C.ar    
  26 O26           -0.9280    12.4975     0.4326 O.2     
  27 F27           -6.5742     7.9544    -2.8798 F       
  28 F28            3.4497    -0.7814    -0.0351 F       
  29 H29           -0.9547     1.9091     0.0170 H       
  30 H30           -0.9304    -0.5490     0.0084 H       
  31 H31            3.3458     1.8252    -0.0193 H       
  32 H32           -0.8720     6.3467     0.0525 H       
  33 H33            3.4228     6.2421     0.0016 H       
  34 H34            1.4801     9.9077     0.0407 H       
  35 H35           -1.9189     8.4896     0.4741 H       
  36 H36           -0.6429    10.3275     1.7939 H       
  37 H37           -0.6731     9.2293    -2.0608 H       
  38 H38           -3.7648    10.7949    -0.8017 H       
  39 H39           -2.1046     7.4109    -2.7971 H       
  40 H40           -4.3626     6.6983    -3.4715 H       
  41 H41           -6.0244    10.0848    -1.4732 H       
@<TRIPOS>BOND
   1    1    2 ar
   2    1    6 ar
   3    1   29 1
   4    2    3 ar
   5    2   30 1
   6    3    4 ar
   7    4    5 ar
   8    4   28 1
   9    5    6 ar
  10    5   31 1
  11    6    7 1
  12    7    8 3
  13    8    9 1
  14    9   11 ar
  15    9   10 ar
  16   10   14 ar
  17   10   32 1
  18   11   12 ar
  19   11   33 1
  20   12   13 ar
  21   13   14 ar
  22   13   34 1
  23   14   15 1
  24   15   18 1
  25   15   17 1
  26   15   35 1
  27   16   17 am
  28   16   19 1
  29   16   26 2
  30   17   36 1
  31   18   19 1
  32   18   20 1
  33   18   37 1
  34   20   22 ar
  35   20   21 ar
  36   21   25 ar
  37   21   38 1
  38   22   23 ar
  39   22   39 1
  40   23   24 ar
  41   23   40 1
  42   24   25 ar
  43   24   27 1
  44   25   41 1

#	End of record

