#	Name: ASD03320145
#	Creating user name:	WinNT
#	Creation time:	15. 06. 2019 20:36

#	Modifying user name:	WinNT
#	Modification time:	15. 06. 2019 20:36

#	Program:	/corina/corina34_cracker 3.40 0067  02.08.2006

@<TRIPOS>MOLECULE
ASD03320145
  29   30    0    0    0
SMALL
NO_CHARGES


@<TRIPOS>ATOM
   1 C1            -0.1749     1.4740    -0.5686 C.2     
   2 C2            -0.1527    -0.0034    -0.5721 C.ar    
   3 C3             0.8982    -0.6981    -1.1848 C.ar    
   4 C4             0.8723    -2.0807    -1.1607 C.ar    
   5 C5            -0.1827    -2.7283    -0.5370 C.ar    
   6 N6            -1.1594    -2.0461     0.0322 N.ar    
   7 C7            -1.1752    -0.7293     0.0398 C.ar    
   8 O8             0.7237     2.0967    -1.1003 O.2     
   9 N9            -1.1942     2.1313     0.0193 N.am    
  10 I10            2.4105    -3.1844    -2.0578 I       
  11 C11           -1.1618     3.5277     0.1194 C.ar    
  12 C12           -2.3383     4.2587     0.0198 C.ar    
  13 C13           -2.3056     5.6356     0.1191 C.ar    
  14 C14           -1.0980     6.2886     0.3184 C.ar    
  15 C15            0.0777     5.5590     0.4176 C.ar    
  16 C16            0.0459     4.1817     0.3242 C.ar    
  17 O17           -1.0667     7.6444     0.4160 O.3     
  18 C18            0.2110     8.2507     0.6210 C.3     
  19 F19            0.7670     7.7750     1.8134 F       
  20 F20            1.0556     7.9312    -0.4475 F       
  21 Cl21           0.0179    10.0406     0.7201 Cl      
  22 Cl22          -0.2207    -4.4635    -0.5042 Cl      
  23 H23            1.7078    -0.1677    -1.6640 H       
  24 H24           -1.9893    -0.2066     0.5199 H       
  25 H25           -1.9502     1.6370     0.3730 H       
  26 H26           -3.2785     3.7505    -0.1357 H       
  27 H27           -3.2205     6.2043     0.0412 H       
  28 H28            1.0175     6.0681     0.5723 H       
  29 H29            0.9607     3.6135     0.4062 H       
@<TRIPOS>BOND
   1    1    2 1
   2    1    8 2
   3    1    9 am
   4    2    3 ar
   5    2    7 ar
   6    3    4 ar
   7    3   23 1
   8    4    5 ar
   9    4   10 1
  10    5    6 ar
  11    5   22 1
  12    6    7 ar
  13    7   24 1
  14    9   11 1
  15    9   25 1
  16   11   12 ar
  17   11   16 ar
  18   12   13 ar
  19   12   26 1
  20   13   14 ar
  21   13   27 1
  22   14   15 ar
  23   14   17 1
  24   15   16 ar
  25   15   28 1
  26   16   29 1
  27   17   18 1
  28   18   19 1
  29   18   20 1
  30   18   21 1

#	End of record

