#	Name: ASD01948064
#	Creating user name:	WinNT
#	Creation time:	15. 06. 2019 20:13

#	Modifying user name:	WinNT
#	Modification time:	15. 06. 2019 20:13

#	Program:	/corina/corina34_cracker 3.40 0067  02.08.2006

@<TRIPOS>MOLECULE
ASD01948064
  58   61    0    0    0
SMALL
NO_CHARGES


@<TRIPOS>ATOM
   1 C1            -0.2407     1.5045    -2.0862 C.3     
   2 C2            -0.4403    -0.0200    -2.1119 C.3     
   3 C3            -0.8161     0.1332    -3.5952 C.3     
   4 C4            -1.2320     1.5751    -3.2597 C.3     
   5 S5            -0.8516     2.2919    -0.5705 S.o2    
   6 O6            -2.2723     2.2819    -0.5411 O.2     
   7 O7            -0.0926     1.8668     0.5531 O.2     
   8 N8            -0.4581     3.8907    -0.7479 N.am    
   9 C9             1.8841     3.3353    -0.7313 C.2     
  10 C10            0.8950     4.2805    -0.8129 C.2     
  11 C11            1.2278     5.6374    -0.9616 C.2     
  12 C12            2.5671     6.0027    -1.0204 C.2     
  13 C13            3.5421     5.0111    -0.9361 C.2     
  14 N14            3.1937     3.7182    -0.8049 N.am    
  15 O15            1.7650     1.9907    -0.5715 O.3     
  16 C16            4.0275     2.5021    -0.7223 C.3     
  17 C17            2.9994     1.3778    -0.9839 C.3     
  18 O18            4.7243     5.3183    -0.9822 O.2     
  19 C19            2.9591     7.4497    -1.1736 C.3     
  20 N20            0.2329     6.5993    -1.0491 N.pl3   
  21 C21           -0.6940     6.5538    -2.0961 C.ar    
  22 C22           -1.7668     7.4394    -2.1166 C.ar    
  23 C23           -2.6804     7.3911    -3.1530 C.ar    
  24 C24           -2.5280     6.4633    -4.1682 C.ar    
  25 C25           -1.4626     5.5818    -4.1494 C.ar    
  26 C26           -0.5422     5.6287    -3.1198 C.ar    
  27 I27           -3.9147     6.3933    -5.7370 I       
  28 F28           -1.9157     8.3449    -1.1251 F       
  29 C29            1.0607    -1.3160    -4.3824 C.3     
  30 C30            0.3817     0.0456    -4.5431 C.3     
  31 C31           -0.0975     0.2093    -5.9869 C.3     
  32 O32           -0.6267     1.5245    -6.1669 O.3     
  33 O33            2.2454    -1.3546    -5.1806 O.3     
  34 H34            0.7699     1.8171    -2.3490 H       
  35 H35            0.4787    -0.5835    -1.9502 H       
  36 H36           -1.2641    -0.3632    -1.4860 H       
  37 H37           -1.6477    -0.5008    -3.9027 H       
  38 H38           -2.2722     1.6681    -2.9476 H       
  39 H39           -0.9523     2.2995    -4.0247 H       
  40 H40           -1.1587     4.5589    -0.8071 H       
  41 H41            4.7992     2.5084    -1.4920 H       
  42 H42            4.4684     2.4011     0.2694 H       
  43 H43            3.2198     0.5012    -0.3747 H       
  44 H44            2.9691     1.1184    -2.0422 H       
  45 H45            3.1547     7.8791    -0.1910 H       
  46 H46            3.8580     7.5197    -1.7861 H       
  47 H47            2.1483     7.9969    -1.6543 H       
  48 H48            0.1795     7.3037    -0.3844 H       
  49 H49           -3.5139     8.0777    -3.1701 H       
  50 H50           -1.3472     4.8585    -4.9431 H       
  51 H51            0.2922     4.9431    -3.1092 H       
  52 H52            1.3227    -1.4701    -3.3357 H       
  53 H53            0.3789    -2.1025    -4.7059 H       
  54 H54            1.0926     0.8366    -4.3043 H       
  55 H55            0.7407     0.0587    -6.6672 H       
  56 H56           -0.8734    -0.5266    -6.1979 H       
  57 H57           -0.9501     1.6993    -7.0613 H       
  58 H58            2.7284    -2.1907    -5.1275 H       
@<TRIPOS>BOND
   1    1    2 1
   2    1    4 1
   3    1    5 1
   4    1   34 1
   5    2    3 1
   6    2   35 1
   7    2   36 1
   8    3    4 1
   9    3   30 1
  10    3   37 1
  11    4   38 1
  12    4   39 1
  13    5    6 2
  14    5    7 2
  15    5    8 am
  16    8   10 1
  17    8   40 1
  18    9   10 2
  19    9   14 1
  20    9   15 1
  21   10   11 1
  22   11   12 2
  23   11   20 1
  24   12   13 1
  25   12   19 1
  26   13   14 am
  27   13   18 2
  28   14   16 1
  29   15   17 1
  30   16   17 1
  31   16   41 1
  32   16   42 1
  33   17   43 1
  34   17   44 1
  35   19   45 1
  36   19   46 1
  37   19   47 1
  38   20   21 1
  39   20   48 1
  40   21   22 ar
  41   21   26 ar
  42   22   23 ar
  43   22   28 1
  44   23   24 ar
  45   23   49 1
  46   24   25 ar
  47   24   27 1
  48   25   26 ar
  49   25   50 1
  50   26   51 1
  51   29   30 1
  52   29   33 1
  53   29   52 1
  54   29   53 1
  55   30   31 1
  56   30   54 1
  57   31   32 1
  58   31   55 1
  59   31   56 1
  60   32   57 1
  61   33   58 1

#	End of record

