#	Name: ASD01820208
#	Creating user name:	WinNT
#	Creation time:	15. 06. 2019 19:36

#	Modifying user name:	WinNT
#	Modification time:	15. 06. 2019 19:36

#	Program:	/corina/corina34_cracker 3.40 0067  02.08.2006

@<TRIPOS>MOLECULE
ASD01820208
  86   92    0    0    0
SMALL
NO_CHARGES


@<TRIPOS>ATOM
   1 C1            -0.0168     1.3874     0.0097 C.ar    
   2 C2             0.0021    -0.0041     0.0020 C.ar    
   3 C3            -1.1812    -0.7125     0.0091 C.ar    
   4 C4            -2.4086    -0.0186     0.0240 C.ar    
   5 C5            -2.4218     1.3525     0.0373 C.ar    
   6 C6            -1.2295     2.0594     0.0306 C.ar    
   7 C7            -3.6742    -0.8542     0.0233 C.3     
   8 N8            -4.7589    -0.0604     0.5781 N.4     
   9 C9            -4.9162     1.2120    -0.1203 C.3     
  10 C10           -3.7142     2.1256     0.0770 C.3     
  11 C11           -3.9258    -1.3153    -1.4068 C.3     
  12 C12           -4.5983    -2.6600    -1.4775 C.ar    
  13 C13           -5.8535    -2.7372    -2.0613 C.ar    
  14 C14           -6.5142    -3.9461    -2.1330 C.ar    
  15 C15           -5.9185    -5.0873    -1.6298 C.ar    
  16 C16           -4.6413    -5.0264    -1.0597 C.ar    
  17 C17           -3.9935    -3.8034    -0.9909 C.ar    
  18 O18           -6.5858    -6.2714    -1.6783 O.3     
  19 O19            1.1922    -0.6634    -0.0103 O.3     
  20 O20            1.1503     2.0863     0.0023 O.3     
  21 C21            1.0528     3.5119     0.0109 C.3     
  22 C22           -6.0242    -0.8051     0.5048 C.3     
  23 C23           -4.4800     0.1935     2.0030 C.3     
  24 C24           -3.3621    -7.8193    -2.1320 C.ar    
  25 C25           -3.1485    -6.9789    -1.0390 C.ar    
  26 C26           -1.9182    -7.0146    -0.3967 C.ar    
  27 C27           -0.9286    -7.8746    -0.8356 C.ar    
  28 C28           -1.1347    -8.7143    -1.9098 C.ar    
  29 C29           -2.3644    -8.6784    -2.5573 C.ar    
  30 O30           -4.1043    -6.1579    -0.5933 O.3     
  31 C31            0.4073    -7.8852    -0.1274 C.3     
  32 N32            0.9507    -9.2753    -0.1805 N.3     
  33 C33            1.2330    -9.5261    -1.6322 C.3     
  34 C34           -0.0758    -9.6588    -2.3926 C.3     
  35 C35            1.3371    -6.8775    -0.7924 C.3     
  36 C36            0.6823    -5.5237    -0.6104 C.ar    
  37 C37            0.4577    -5.0678     0.6768 C.ar    
  38 C38           -0.1841    -3.8673     0.8774 C.ar    
  39 C39           -0.6078    -3.1094    -0.2143 C.ar    
  40 C40           -0.3234    -3.5490    -1.5019 C.ar    
  41 C41            0.3209    -4.7568    -1.6969 C.ar    
  42 O42           -1.3158    -2.0243     0.0089 O.3     
  43 C43            2.3085    -9.2117     0.4662 C.3     
  44 O44           -4.5542    -7.8048    -2.7869 O.3     
  45 C45           -4.6959    -8.6944    -3.8962 C.3     
  46 H46           -1.2467     3.1391     0.0362 H       
  47 H47           -3.5140    -1.7318     0.6589 H       
  48 H48           -5.0619     1.0274    -1.1880 H       
  49 H49           -5.8145     1.7143     0.2587 H       
  50 H50           -3.7957     2.6592     1.0257 H       
  51 H51           -3.7008     2.8740    -0.7266 H       
  52 H52           -4.5356    -0.5810    -1.9336 H       
  53 H53           -2.9624    -1.3840    -1.9269 H       
  54 H54           -6.3126    -1.8455    -2.4624 H       
  55 H55           -7.4968    -4.0005    -2.5791 H       
  56 H56           -3.0084    -3.7447    -0.5520 H       
  57 H57           -6.4267    -6.7798    -2.4854 H       
  58 H58            1.5428    -0.8588     0.8695 H       
  59 H59            2.0532     3.9446     0.0036 H       
  60 H60            0.5069     3.8441    -0.8722 H       
  61 H61            0.5239     3.8345     0.9077 H       
  62 H62           -5.9342    -1.7312     1.0726 H       
  63 H63           -6.8275    -0.1989     0.9236 H       
  64 H64           -6.2493    -1.0375    -0.5361 H       
  65 H65           -3.5391     0.7356     2.0981 H       
  66 H66           -5.2869     0.7884     2.4308 H       
  67 H67           -4.4076    -0.7558     2.5338 H       
  68 H68           -1.7392    -6.3669     0.4491 H       
  69 H69           -2.5448    -9.3288    -3.4010 H       
  70 H70            0.2517    -7.6124     0.9149 H       
  71 H71            1.8374    -8.7260    -2.0252 H       
  72 H72            1.7813   -10.4685    -1.6909 H       
  73 H73           -0.4438   -10.6815    -2.2854 H       
  74 H74            0.1085    -9.4702    -3.4513 H       
  75 H75            2.3201    -6.8456    -0.3360 H       
  76 H76            1.4196    -7.0739    -1.8624 H       
  77 H77            0.7873    -5.6531     1.5228 H       
  78 H78           -0.3598    -3.5090     1.8813 H       
  79 H79           -0.6033    -2.9459    -2.3534 H       
  80 H80            0.5405    -5.0946    -2.6992 H       
  81 H81            2.2051    -8.8672     1.4952 H       
  82 H82            2.7613   -10.2032     0.4588 H       
  83 H83            2.9423    -8.5187    -0.0870 H       
  84 H84           -5.6909    -8.5823    -4.3270 H       
  85 H85           -3.9448    -8.4579    -4.6498 H       
  86 H86           -4.5602    -9.7216    -3.5578 H       
@<TRIPOS>BOND
   1    1    2 ar
   2    1   20 1
   3    1    6 ar
   4    2    3 ar
   5    2   19 1
   6    3    4 ar
   7    3   42 1
   8    4    5 ar
   9    4    7 1
  10    5    6 ar
  11    5   10 1
  12    6   46 1
  13    7    8 1
  14    7   11 1
  15    7   47 1
  16    8    9 1
  17    8   22 1
  18    8   23 1
  19    9   10 1
  20    9   48 1
  21    9   49 1
  22   10   50 1
  23   10   51 1
  24   11   12 1
  25   11   52 1
  26   11   53 1
  27   12   13 ar
  28   12   17 ar
  29   13   14 ar
  30   13   54 1
  31   14   15 ar
  32   14   55 1
  33   15   16 ar
  34   15   18 1
  35   16   17 ar
  36   16   30 1
  37   17   56 1
  38   18   57 1
  39   19   58 1
  40   20   21 1
  41   21   59 1
  42   21   60 1
  43   21   61 1
  44   22   62 1
  45   22   63 1
  46   22   64 1
  47   23   65 1
  48   23   66 1
  49   23   67 1
  50   24   25 ar
  51   24   44 1
  52   24   29 ar
  53   25   26 ar
  54   25   30 1
  55   26   27 ar
  56   26   68 1
  57   27   28 ar
  58   27   31 1
  59   28   29 ar
  60   28   34 1
  61   29   69 1
  62   31   32 1
  63   31   35 1
  64   31   70 1
  65   32   33 1
  66   32   43 1
  67   33   34 1
  68   33   71 1
  69   33   72 1
  70   34   73 1
  71   34   74 1
  72   35   36 1
  73   35   75 1
  74   35   76 1
  75   36   37 ar
  76   36   41 ar
  77   37   38 ar
  78   37   77 1
  79   38   39 ar
  80   38   78 1
  81   39   40 ar
  82   39   42 1
  83   40   41 ar
  84   40   79 1
  85   41   80 1
  86   43   81 1
  87   43   82 1
  88   43   83 1
  89   44   45 1
  90   45   84 1
  91   45   85 1
  92   45   86 1

#	End of record

