#	Name: ASD01908203
#	Creating user name:	WinNT
#	Creation time:	15. 06. 2019 19:54

#	Modifying user name:	WinNT
#	Modification time:	15. 06. 2019 19:54

#	Program:	/corina/corina34_cracker 3.40 0067  02.08.2006

@<TRIPOS>MOLECULE
ASD01908203
  32   33    0    0    0
SMALL
NO_CHARGES


@<TRIPOS>ATOM
   1 C1            -0.0168     1.3910     0.0097 C.ar    
   2 C2             0.0021    -0.0041     0.0020 C.ar    
   3 C3             1.2128    -0.6756    -0.0131 C.ar    
   4 C4             2.4035     0.0386    -0.0202 C.ar    
   5 C5             2.3863     1.4209    -0.0126 C.ar    
   6 C6             1.1851     2.1003     0.0020 C.ar    
   7 O7             1.2357    -2.0345    -0.0207 O.3     
   8 C8             2.5197    -2.6616    -0.0363 C.3     
   9 C9             2.3475    -4.1587    -0.0427 C.2     
  10 O10            1.2349    -4.6411    -0.0347 O.2     
  11 C11            3.5283    -5.0344    -0.0587 C.ar    
  12 C12            3.3719    -6.4250    -0.0646 C.ar    
  13 C13            4.4824    -7.2398    -0.0796 C.ar    
  14 C14            5.7537    -6.6847    -0.0887 C.ar    
  15 C15            5.9157    -5.3070    -0.0828 C.ar    
  16 C16            4.8135    -4.4809    -0.0738 C.ar    
  17 F17            6.8388    -7.4894    -0.1029 F       
  18 C18           -1.3057     2.1155     0.0197 C.2     
  19 O19           -2.3513     1.4956     0.0213 O.2     
  20 N20           -1.3212     3.4631     0.0271 N.am    
  21 H21           -0.9248    -0.5584     0.0082 H       
  22 H22            3.3465    -0.4877    -0.0313 H       
  23 H23            3.3158     1.9709    -0.0182 H       
  24 H24            1.1753     3.1802     0.0076 H       
  25 H25            3.0631    -2.3545    -0.9299 H       
  26 H26            3.0801    -2.3641     0.8500 H       
  27 H27            2.3827    -6.8584    -0.0572 H       
  28 H28            4.3631    -8.3132    -0.0838 H       
  29 H29            6.9082    -4.8812    -0.0900 H       
  30 H30            4.9409    -3.4084    -0.0737 H       
  31 H31           -0.4868     3.9578     0.0259 H       
  32 H32           -2.1668     3.9384     0.0337 H       
@<TRIPOS>BOND
   1    1    2 ar
   2    1    6 ar
   3    1   18 1
   4    2    3 ar
   5    2   21 1
   6    3    4 ar
   7    3    7 1
   8    4    5 ar
   9    4   22 1
  10    5    6 ar
  11    5   23 1
  12    6   24 1
  13    7    8 1
  14    8    9 1
  15    8   25 1
  16    8   26 1
  17    9   10 2
  18    9   11 1
  19   11   12 ar
  20   11   16 ar
  21   12   13 ar
  22   12   27 1
  23   13   14 ar
  24   13   28 1
  25   14   15 ar
  26   14   17 1
  27   15   16 ar
  28   15   29 1
  29   16   30 1
  30   18   19 2
  31   18   20 am
  32   20   31 1
  33   20   32 1

#	End of record

