#	Name: ASD02560012
#	Creating user name:	WinNT
#	Creation time:	15. 06. 2019 20:24

#	Modifying user name:	WinNT
#	Modification time:	15. 06. 2019 20:24

#	Program:	/corina/corina34_cracker 3.40 0067  02.08.2006

@<TRIPOS>MOLECULE
ASD02560012
  28   29    0    0    0
SMALL
NO_CHARGES


@<TRIPOS>ATOM
   1 C1            -0.0163     1.3499     0.0095 C.2     
   2 C2             0.0021    -0.0041     0.0020 C.2     
   3 N3             1.1995    -0.6542    -0.0129 N.am    
   4 C4             2.3511     0.0420    -0.0202 C.2     
   5 N5             2.3493     1.3739    -0.0130 N.2     
   6 C6             1.2078     2.0496     0.0015 C.2     
   7 N7             1.2183     3.4252     0.0084 N.pl3   
   8 O8             3.4139    -0.5565    -0.0331 O.2     
   9 C9             1.2335    -2.1188    -0.0206 C.3     
  10 O10           -0.1022    -2.6357    -0.0444 O.3     
  11 C11           -0.3137    -3.3933    -1.2464 C.3     
  12 C12            1.0978    -3.8567    -1.6863 C.3     
  13 C13            1.9502    -2.6194    -1.2931 C.3     
  14 C14           -1.2052    -4.6036    -0.9612 C.3     
  15 O15           -2.5154    -4.1572    -0.6064 O.3     
  16 H16           -0.9541     1.8855     0.0168 H       
  17 H17           -0.9223    -0.5626     0.0082 H       
  18 H18            2.0620     3.9038     0.0026 H       
  19 H19            0.3821     3.9166     0.0190 H       
  20 H20            1.7545    -2.4812     0.8656 H       
  21 H21           -0.7624    -2.7648    -2.0156 H       
  22 H22            1.4112    -4.7416    -1.1323 H       
  23 H23            1.1358    -4.0344    -2.7610 H       
  24 H24            1.9211    -1.8632    -2.0776 H       
  25 H25            2.9769    -2.9103    -1.0710 H       
  26 H26           -1.2634    -5.2298    -1.8515 H       
  27 H27           -0.7826    -5.1803    -0.1385 H       
  28 H28           -3.1356    -4.8731    -0.4116 H       
@<TRIPOS>BOND
   1    1    2 2
   2    1    6 1
   3    1   16 1
   4    2    3 1
   5    2   17 1
   6    3    4 am
   7    3    9 1
   8    4    5 1
   9    4    8 2
  10    5    6 2
  11    6    7 1
  12    7   18 1
  13    7   19 1
  14    9   10 1
  15    9   13 1
  16    9   20 1
  17   10   11 1
  18   11   12 1
  19   11   14 1
  20   11   21 1
  21   12   13 1
  22   12   22 1
  23   12   23 1
  24   13   24 1
  25   13   25 1
  26   14   15 1
  27   14   26 1
  28   14   27 1
  29   15   28 1

#	End of record

