#	Name: ASD01151116
#	Creating user name:	WinNT
#	Creation time:	15. 06. 2019 19:05

#	Modifying user name:	WinNT
#	Modification time:	15. 06. 2019 19:05

#	Program:	/corina/corina34_cracker 3.40 0067  02.08.2006

@<TRIPOS>MOLECULE
ASD01151116
  60   63    0    0    0
SMALL
NO_CHARGES


@<TRIPOS>ATOM
   1 C1             0.4766     0.5836     1.0579 C.3     
   2 C2             0.2002    -0.7674     0.3951 C.3     
   3 C3             0.6276    -1.8946     1.3372 C.3     
   4 C4            -1.2726    -0.8903     0.1004 C.2     
   5 C5            -2.2143    -0.6310     1.0975 C.2     
   6 C6            -1.7548    -0.2264     2.4745 C.3     
   7 N7            -3.4995    -0.7371     0.8428 N.2     
   8 C8            -3.9357    -1.0952    -0.3748 C.2     
   9 C9            -5.2079    -1.2768    -0.8960 C.2     
  10 F10           -6.3730    -1.1172    -0.2311 F       
  11 C11           -5.0658    -1.6543    -2.2349 C.2     
  12 N12           -3.7773    -1.7037    -2.5263 N.2     
  13 N13           -3.0443    -1.3596    -1.3852 N.pl3   
  14 C14           -1.6988    -1.2515    -1.1484 C.2     
  15 N15           -0.7885    -1.5075    -2.1520 N.pl3   
  16 C16           -0.6498    -2.8596    -2.7098 C.3     
  17 C17           -0.8043    -2.7833    -4.2320 C.3     
  18 C18            0.1937    -1.7670    -4.7917 C.3     
  19 C19           -0.1013    -0.3841    -4.2063 C.3     
  20 C20           -1.5347     0.0224    -4.5540 C.3     
  21 C21            0.0569    -0.4320    -2.6880 C.3     
  22 C22            0.8609     0.6220    -4.7833 C.2     
  23 O23            0.8975     0.8324    -6.1085 O.3     
  24 O24            1.5994     1.2394    -4.0530 O.2     
  25 C25           -6.1771    -1.9509    -3.1729 C.ar    
  26 C26           -7.3391    -2.5635    -2.7087 C.ar    
  27 C27           -8.3695    -2.8371    -3.5854 C.ar    
  28 C28           -8.2499    -2.5042    -4.9226 C.ar    
  29 C29           -7.0983    -1.8963    -5.3889 C.ar    
  30 C30           -6.0643    -1.6125    -4.5197 C.ar    
  31 C31           -9.3783    -2.8054    -5.8750 C.3     
  32 F32          -10.2528    -1.7144    -5.9219 F       
  33 F33           -8.8595    -3.0425    -7.1525 F       
  34 F34          -10.0701    -3.9389    -5.4349 F       
  35 H35            1.5419     0.6725     1.2711 H       
  36 H36            0.1721     1.3867     0.3868 H       
  37 H37           -0.0872     0.6541     1.9881 H       
  38 H38            0.7640    -0.8378    -0.5351 H       
  39 H39            0.1823    -1.7359     2.3193 H       
  40 H40            0.2913    -2.8506     0.9359 H       
  41 H41            1.7139    -1.9004     1.4275 H       
  42 H42           -1.6656     0.8588     2.5235 H       
  43 H43           -2.4806    -0.5651     3.2139 H       
  44 H44           -0.7858    -0.6804     2.6822 H       
  45 H45            0.3341    -3.2580    -2.4619 H       
  46 H46           -1.4232    -3.5068    -2.2960 H       
  47 H47           -0.6083    -3.7633    -4.6672 H       
  48 H48           -1.8189    -2.4711    -4.4795 H       
  49 H49            1.2066    -2.0667    -4.5227 H       
  50 H50            0.1028    -1.7288    -5.8772 H       
  51 H51           -2.2303    -0.7050    -4.1355 H       
  52 H52           -1.7444     1.0073    -4.1369 H       
  53 H53           -1.6506     0.0544    -5.6374 H       
  54 H54           -0.2504     0.5221    -2.2599 H       
  55 H55            1.0997    -0.6280    -2.4383 H       
  56 H56            1.5311     1.4875    -6.4317 H       
  57 H57           -7.4334    -2.8242    -1.6649 H       
  58 H58           -9.2706    -3.3123    -3.2267 H       
  59 H59           -7.0100    -1.6388    -6.4340 H       
  60 H60           -5.1676    -1.1332    -4.8839 H       
@<TRIPOS>BOND
   1    1    2 1
   2    1   35 1
   3    1   36 1
   4    1   37 1
   5    2    3 1
   6    2    4 1
   7    2   38 1
   8    3   39 1
   9    3   40 1
  10    3   41 1
  11    4   14 2
  12    4    5 1
  13    5    6 1
  14    5    7 2
  15    6   42 1
  16    6   43 1
  17    6   44 1
  18    7    8 1
  19    8   13 1
  20    8    9 2
  21    9   10 1
  22    9   11 1
  23   11   12 2
  24   11   25 1
  25   12   13 1
  26   13   14 1
  27   14   15 1
  28   15   21 1
  29   15   16 1
  30   16   17 1
  31   16   45 1
  32   16   46 1
  33   17   18 1
  34   17   47 1
  35   17   48 1
  36   18   19 1
  37   18   49 1
  38   18   50 1
  39   19   20 1
  40   19   21 1
  41   19   22 1
  42   20   51 1
  43   20   52 1
  44   20   53 1
  45   21   54 1
  46   21   55 1
  47   22   23 1
  48   22   24 2
  49   23   56 1
  50   25   30 ar
  51   25   26 ar
  52   26   27 ar
  53   26   57 1
  54   27   28 ar
  55   27   58 1
  56   28   29 ar
  57   28   31 1
  58   29   30 ar
  59   29   59 1
  60   30   60 1
  61   31   32 1
  62   31   33 1
  63   31   34 1

#	End of record

