#	Name: ASD03090754
#	Creating user name:	WinNT
#	Creation time:	15. 06. 2019 20:29

#	Modifying user name:	WinNT
#	Modification time:	15. 06. 2019 20:29

#	Program:	/corina/corina34_cracker 3.40 0067  02.08.2006

@<TRIPOS>MOLECULE
ASD03090754
  40   42    0    0    0
SMALL
NO_CHARGES


@<TRIPOS>ATOM
   1 C1            -0.0173     1.4248     0.0099 C.3     
   2 O2             0.0021    -0.0041     0.0020 O.3     
   3 C3            -1.2003    -0.6375     0.0101 C.ar    
   4 C4            -1.2554    -2.0237     0.0032 C.ar    
   5 C5            -2.4789    -2.6651     0.0114 C.ar    
   6 C6            -3.6478    -1.9268     0.0264 C.ar    
   7 C7            -3.5955    -0.5452     0.0329 C.ar    
   8 C8            -2.3745     0.1010     0.0310 C.ar    
   9 C9            -4.9811    -2.6292     0.0354 C.3     
  10 N10           -5.4000    -2.8642     1.4194 N.am    
  11 C11           -6.5700    -3.4831     1.6735 C.2     
  12 O12           -7.2760    -3.8455     0.7563 O.2     
  13 C13           -7.0009    -3.7248     3.0972 C.3     
  14 C14           -8.2062    -2.9368     3.6139 C.3     
  15 C15           -8.3391    -4.4324     3.3198 C.3     
  16 C16           -8.4448    -5.3665     4.4976 C.ar    
  17 C17           -8.7444    -6.7010     4.2967 C.ar    
  18 C18           -8.8414    -7.5578     5.3771 C.ar    
  19 C19           -8.6385    -7.0803     6.6584 C.ar    
  20 C20           -8.3380    -5.7460     6.8592 C.ar    
  21 C21           -8.2367    -4.8901     5.7785 C.ar    
  22 H22            1.0053     1.8021     0.0021 H       
  23 H23           -0.5445     1.7859    -0.8732 H       
  24 H24           -0.5275     1.7763     0.9067 H       
  25 H25           -0.3427    -2.6008    -0.0090 H       
  26 H26           -2.5223    -3.7442     0.0056 H       
  27 H27           -4.5100     0.0293     0.0440 H       
  28 H28           -2.3342     1.1803     0.0361 H       
  29 H29           -5.7222    -2.0084    -0.4681 H       
  30 H30           -4.8927    -3.5832    -0.4845 H       
  31 H31           -4.8353    -2.5744     2.1529 H       
  32 H32           -6.1968    -3.9347     3.8025 H       
  33 H33           -8.1953    -2.6285     4.6594 H       
  34 H34           -8.6876    -2.2435     2.9242 H       
  35 H35           -8.9078    -4.7230     2.4365 H       
  36 H36           -8.9029    -7.0741     3.2957 H       
  37 H37           -9.0761    -8.6003     5.2202 H       
  38 H38           -8.7150    -7.7496     7.5025 H       
  39 H39           -8.1798    -5.3729     7.8603 H       
  40 H40           -8.0020    -3.8476     5.9354 H       
@<TRIPOS>BOND
   1    1    2 1
   2    1   22 1
   3    1   23 1
   4    1   24 1
   5    2    3 1
   6    3    4 ar
   7    3    8 ar
   8    4    5 ar
   9    4   25 1
  10    5    6 ar
  11    5   26 1
  12    6    7 ar
  13    6    9 1
  14    7    8 ar
  15    7   27 1
  16    8   28 1
  17    9   10 1
  18    9   29 1
  19    9   30 1
  20   10   11 am
  21   10   31 1
  22   11   12 2
  23   11   13 1
  24   13   14 1
  25   13   15 1
  26   13   32 1
  27   14   15 1
  28   14   33 1
  29   14   34 1
  30   15   16 1
  31   15   35 1
  32   16   17 ar
  33   16   21 ar
  34   17   18 ar
  35   17   36 1
  36   18   19 ar
  37   18   37 1
  38   19   20 ar
  39   19   38 1
  40   20   21 ar
  41   20   39 1
  42   21   40 1

#	End of record

