#	Name: ASD05143046
#	Creating user name:	WinNT
#	Creation time:	15. 06. 2019 20:57

#	Modifying user name:	WinNT
#	Modification time:	15. 06. 2019 20:57

#	Program:	/corina/corina34_cracker 3.40 0067  02.08.2006

@<TRIPOS>MOLECULE
ASD05143046
 147  150    0    0    0
SMALL
NO_CHARGES


@<TRIPOS>ATOM
   1 C1            -1.9678     2.7161     4.9857 C.2     
   2 C2            -1.4475     1.6058     5.8617 C.3     
   3 N3            -1.1108     3.4532     4.2517 N.am    
   4 O4            -3.1581     2.9432     4.9374 O.2     
   5 C5            -1.6166     4.5327     3.4001 C.3     
   6 C6            -2.5862     3.9554     2.3670 C.3     
   7 C7            -2.3348     5.5487     4.2504 C.2     
   8 C8            -1.8287     3.0176     1.4248 C.3     
   9 C9            -2.7983     2.4403     0.3916 C.3     
  10 N10           -2.0730     1.5424    -0.5106 N.pl3   
  11 C11           -2.7414     0.9026    -1.5275 C.2     
  12 N12           -2.0608     0.0600    -2.3741 N.pl3   
  13 N13           -4.0204     1.0949    -1.6888 N.2     
  14 O14           -2.7364     5.2417     5.3528 O.2     
  15 N15           -2.5308     6.7985     3.7857 N.am    
  16 C16           -3.2290     7.7862     4.6122 C.3     
  17 C17           -2.2112     8.7529     5.2208 C.3     
  18 C18           -1.0418     7.9603     5.8079 C.3     
  19 C19           -0.0026     7.7325     4.7407 C.2     
  20 O20           -0.3266     7.3619     3.6322 O.2     
  21 N21            1.3113     7.9516     5.0445 N.am    
  22 C22            2.2677     7.6984     3.9429 C.3     
  23 C23            2.4191     8.9801     3.1211 C.3     
  24 C24            2.9417     8.6320     1.7259 C.3     
  25 C25            3.9264     9.7089     1.2660 C.3     
  26 N26            3.7571     9.9206    -0.1856 N.am    
  27 C27            5.3362     9.2585     1.5497 C.2     
  28 N28            5.8436     9.3750     2.7928 N.am    
  29 O29            6.0143     8.7912     0.6593 O.2     
  30 C30            2.9522    10.9523    -0.5600 C.2     
  31 O31            2.4194    11.6502     0.2767 O.2     
  32 C32            2.7317    11.2167    -2.0271 C.3     
  33 N33            1.5473    12.0935    -2.1751 N.am    
  34 C34            3.9618    11.9113    -2.6146 C.3     
  35 C35            0.4131    11.4750    -2.6196 C.2     
  36 O36            0.4146    10.2886    -2.8717 O.2     
  37 C37           -0.8400    12.2946    -2.7902 C.3     
  38 N38           -2.0123    11.4068    -2.6581 N.am    
  39 C39           -0.8941    13.3789    -1.7121 C.3     
  40 C40           -3.0270    11.8512    -1.8666 C.2     
  41 O41           -2.9450    12.9231    -1.3052 O.2     
  42 C42           -4.2537    10.9922    -1.6986 C.3     
  43 C43            3.7893    12.0636    -4.1039 C.2     
  44 C44            3.0879    13.1492    -4.7934 C.ar    
  45 C45            3.1883    12.8659    -6.1676 C.ar    
  46 N46            3.8996    11.6933    -6.2896 N.pl3   
  47 C47            4.2541    11.2332    -5.0507 C.2     
  48 C48            2.4106    14.2928    -4.3654 C.ar    
  49 C49            1.8480    15.1319    -5.2853 C.ar    
  50 C50            1.9438    14.8564    -6.6426 C.ar    
  51 C51            2.6081    13.7344    -7.0866 C.ar    
  52 N52           -4.7118    11.0888    -0.2938 N.am    
  53 C53           -3.9109     9.5379    -2.0278 C.3     
  54 C54           -5.1561     8.6944    -1.9328 C.ar    
  55 C55           -6.1538     8.8244    -2.8821 C.ar    
  56 C56           -7.2967     8.0492    -2.7945 C.ar    
  57 C57           -7.4408     7.1457    -1.7588 C.ar    
  58 C58           -6.4432     7.0163    -0.8102 C.ar    
  59 C59           -5.2991     7.7866    -0.9001 C.ar    
  60 C60           -4.2045     8.5558     3.7591 C.2     
  61 O61           -5.3984     8.4567     3.9483 O.2     
  62 C62           -0.7635    12.7324    -0.3316 C.3     
  63 C63           -0.9422    13.7995     0.7502 C.3     
  64 N64           -0.8172    13.1804     2.0721 N.pl3   
  65 C65           -0.9420    13.9486     3.2055 C.2     
  66 N66           -0.8246    13.3677     4.4461 N.pl3   
  67 N67           -1.1715    15.2276     3.1039 N.2     
  68 Cl68          -5.9724     9.9599    -4.1826 Cl      
  69 N69           -3.7263     9.3633     2.7730 N.am    
  70 C70           -4.7292    10.0920     1.9708 C.3     
  71 C71           -5.3635    11.5564     3.8932 C.3     
  72 C72           -4.8254    11.5381     2.4611 C.3     
  73 C73           -4.3013    10.0759     0.5260 C.2     
  74 O74           -3.6051     9.1796     0.0985 O.2     
  75 C75           -5.4582    12.9808     4.3760 C.2     
  76 N76           -5.9100    13.2426     5.6185 N.am    
  77 O77           -5.1278    13.8917     3.6465 O.2     
  78 H78           -0.7567     2.0170     6.5978 H       
  79 H79           -2.2814     1.1263     6.3743 H       
  80 H80           -0.9280     0.8709     5.2468 H       
  81 H81           -0.1591     3.2690     4.2874 H       
  82 H82           -0.7826     5.0122     2.8876 H       
  83 H83           -3.3728     3.3998     2.8776 H       
  84 H84           -3.0301     4.7678     1.7916 H       
  85 H85           -1.0421     3.5732     0.9142 H       
  86 H86           -1.3848     2.2052     2.0002 H       
  87 H87           -3.5849     1.8847     0.9022 H       
  88 H88           -3.2422     3.2527    -0.1838 H       
  89 H89           -1.1212     1.3993    -0.3905 H       
  90 H90           -1.1089    -0.0831    -2.2540 H       
  91 H91           -2.5323    -0.3914    -3.0916 H       
  92 H92           -4.4920     0.6435    -2.4063 H       
  93 H93           -2.2096     7.0441     2.9039 H       
  94 H94           -3.7681     7.2761     5.4105 H       
  95 H95           -1.8419     9.4260     4.4471 H       
  96 H96           -2.6888     9.3338     6.0099 H       
  97 H97           -0.5998     8.5212     6.6314 H       
  98 H98           -1.4021     6.9993     6.1750 H       
  99 H99            1.5977     8.2525     5.9211 H       
 100 H100           3.2349     7.4129     4.3566 H       
 101 H101           1.8891     6.8986     3.3065 H       
 102 H102           1.4505     9.4724     3.0340 H       
 103 H103           3.1233     9.6484     3.6166 H       
 104 H104           3.4476     7.6670     1.7578 H       
 105 H105           2.1065     8.5813     1.0273 H       
 106 H106           3.7243    10.6393     1.7968 H       
 107 H107           4.1966     9.3536    -0.8385 H       
 108 H108           5.3013     9.7488     3.5050 H       
 109 H109           6.7511     9.0851     2.9754 H       
 110 H110           2.5568    10.2746    -2.5466 H       
 111 H111           1.5750    13.0414    -1.9708 H       
 112 H112           4.0755    12.8952    -2.1595 H       
 113 H113           4.8493    11.3120    -2.4111 H       
 114 H114          -0.8419    12.7577    -3.7770 H       
 115 H115          -2.0571    10.5506    -3.1118 H       
 116 H116          -0.0752    14.0823    -1.8628 H       
 117 H117          -1.8445    13.9085    -1.7769 H       
 118 H118          -5.0409    11.3446    -2.3650 H       
 119 H119           4.1199    11.2600    -7.1290 H       
 120 H120           4.8177    10.3314    -4.8621 H       
 121 H121           2.3315    14.5131    -3.3111 H       
 122 H122           1.3242    16.0163    -4.9538 H       
 123 H123           1.4936    15.5290    -7.3576 H       
 124 H124           2.6775    13.5290    -8.1447 H       
 125 H125          -5.2647    11.8204     0.0224 H       
 126 H126          -3.5087     9.4794    -3.0392 H       
 127 H127          -3.1682     9.1704    -1.3197 H       
 128 H128          -8.0761     8.1505    -3.5352 H       
 129 H129          -8.3329     6.5409    -1.6901 H       
 130 H130          -6.5564     6.3103    -0.0007 H       
 131 H131          -4.5200     7.6848    -0.1591 H       
 132 H132          -1.5294    11.9656    -0.2156 H       
 133 H133           0.2228    12.2785    -0.2348 H       
 134 H134          -0.1763    14.5663     0.6342 H       
 135 H135          -1.9285    14.2534     0.6534 H       
 136 H136          -0.6463    12.2286     2.1477 H       
 137 H137          -0.6538    12.4158     4.5217 H       
 138 H138          -0.9127    13.9096     5.2457 H       
 139 H139          -1.2595    15.7696     3.9036 H       
 140 H140          -2.7753     9.4555     2.6060 H       
 141 H141          -5.7001     9.6068     2.0716 H       
 142 H142          -6.3524    11.0987     3.9156 H       
 143 H143          -4.6894    10.9970     4.5418 H       
 144 H144          -3.8364    11.9959     2.4386 H       
 145 H145          -5.4995    12.0976     1.8124 H       
 146 H146          -6.1742    12.5141     6.2020 H       
 147 H147          -5.9710    14.1594     5.9293 H       
@<TRIPOS>BOND
   1    1    2 1
   2    1    3 am
   3    1    4 2
   4    2   78 1
   5    2   79 1
   6    2   80 1
   7    3    5 1
   8    3   81 1
   9    5    6 1
  10    5    7 1
  11    5   82 1
  12    6    8 1
  13    6   83 1
  14    6   84 1
  15    7   14 2
  16    7   15 am
  17    8    9 1
  18    8   85 1
  19    8   86 1
  20    9   10 1
  21    9   87 1
  22    9   88 1
  23   10   11 1
  24   10   89 1
  25   11   12 1
  26   11   13 2
  27   12   90 1
  28   12   91 1
  29   13   92 1
  30   15   16 1
  31   15   93 1
  32   16   17 1
  33   16   60 1
  34   16   94 1
  35   17   18 1
  36   17   95 1
  37   17   96 1
  38   18   19 1
  39   18   97 1
  40   18   98 1
  41   19   20 2
  42   19   21 am
  43   21   22 1
  44   21   99 1
  45   22   23 1
  46   22  100 1
  47   22  101 1
  48   23   24 1
  49   23  102 1
  50   23  103 1
  51   24   25 1
  52   24  104 1
  53   24  105 1
  54   25   26 1
  55   25   27 1
  56   25  106 1
  57   26   30 am
  58   26  107 1
  59   27   28 am
  60   27   29 2
  61   28  108 1
  62   28  109 1
  63   30   31 2
  64   30   32 1
  65   32   33 1
  66   32   34 1
  67   32  110 1
  68   33   35 am
  69   33  111 1
  70   34   43 1
  71   34  112 1
  72   34  113 1
  73   35   36 2
  74   35   37 1
  75   37   38 1
  76   37   39 1
  77   37  114 1
  78   38   40 am
  79   38  115 1
  80   39   62 1
  81   39  116 1
  82   39  117 1
  83   40   41 2
  84   40   42 1
  85   42   52 1
  86   42   53 1
  87   42  118 1
  88   43   44 1
  89   43   47 2
  90   44   45 ar
  91   44   48 ar
  92   45   46 1
  93   45   51 ar
  94   46   47 1
  95   46  119 1
  96   47  120 1
  97   48   49 ar
  98   48  121 1
  99   49   50 ar
 100   49  122 1
 101   50   51 ar
 102   50  123 1
 103   51  124 1
 104   52   73 am
 105   52  125 1
 106   53   54 1
 107   53  126 1
 108   53  127 1
 109   54   55 ar
 110   54   59 ar
 111   55   56 ar
 112   55   68 1
 113   56   57 ar
 114   56  128 1
 115   57   58 ar
 116   57  129 1
 117   58   59 ar
 118   58  130 1
 119   59  131 1
 120   60   61 2
 121   60   69 am
 122   62   63 1
 123   62  132 1
 124   62  133 1
 125   63   64 1
 126   63  134 1
 127   63  135 1
 128   64   65 1
 129   64  136 1
 130   65   66 1
 131   65   67 2
 132   66  137 1
 133   66  138 1
 134   67  139 1
 135   69   70 1
 136   69  140 1
 137   70   72 1
 138   70   73 1
 139   70  141 1
 140   71   72 1
 141   71   75 1
 142   71  142 1
 143   71  143 1
 144   72  144 1
 145   72  145 1
 146   73   74 2
 147   75   76 am
 148   75   77 2
 149   76  146 1
 150   76  147 1

#	End of record

