#	Name: ASD00069410
#	Creating user name:	WinNT
#	Creation time:	15. 06. 2019 18:29

#	Modifying user name:	WinNT
#	Modification time:	15. 06. 2019 18:29

#	Program:	/corina/corina34_cracker 3.40 0067  02.08.2006

@<TRIPOS>MOLECULE
ASD00069410
  78   80    0    0    0
SMALL
NO_CHARGES


@<TRIPOS>ATOM
   1 C1            -0.0136     1.1323     0.8615 C.2     
   2 C2             0.0029    -0.0499     0.1967 C.2     
   3 C3             2.0614     0.5056     0.5323 C.2     
   4 N4             1.2712    -0.4082     0.0094 N.2     
   5 Br5           -1.5169    -1.0235    -0.3674 Br      
   6 C6             3.5345     0.4753     0.5310 C.2     
   7 O7             4.1619     1.3807     1.0469 O.2     
   8 N8             4.1869    -0.5556    -0.0419 N.am    
   9 C9             5.5830    -0.5282    -0.1487 C.ar    
  10 C10            6.3144    -1.7109    -0.0531 C.ar    
  11 C11            6.2414     0.6756    -0.3558 C.ar    
  12 C12            7.6191     0.7014    -0.4610 C.ar    
  13 C13            8.3468    -0.4705    -0.3606 C.ar    
  14 C14            7.6988    -1.6766    -0.1599 C.ar    
  15 N15            5.6554    -2.9301     0.1506 N.3     
  16 C16            5.9236    -3.8646    -0.9522 C.3     
  17 C17            5.1387    -5.1583    -0.7198 C.3     
  18 O18            5.4965    -5.7051     0.5523 O.3     
  19 C19            5.2480    -4.8217     1.6492 C.3     
  20 C20            6.0339    -3.5245     1.4408 C.3     
  21 F21            8.4128    -2.8194    -0.0619 F       
  22 C22            5.4755    -6.1651    -1.8216 C.3     
  23 N23            1.2816     1.4876     1.0759 N.pl3   
  24 Si24           0.1633     6.9937     4.1595 Si      
  25 C25           -0.2937     5.4215     3.2706 C.3     
  26 C26            0.9796     4.6762     2.8654 C.3     
  27 O27            0.6291     3.4703     2.1835 O.3     
  28 C28            1.1814     8.0715     3.0314 C.3     
  29 C29           -1.3871     7.9013     4.6528 C.3     
  30 C30            1.1525     6.5806     5.6831 C.3     
  31 C31            1.7520     2.6948     1.7597 C.3     
  32 N32            4.6368    -7.3564    -1.6676 N.am    
  33 O33            3.9891    -9.4782    -2.3901 O.3     
  34 C34            4.1757   -10.5452    -3.3570 C.3     
  35 C35            5.6194   -11.0474    -3.2902 C.3     
  36 C36            3.2200   -11.6964    -3.0369 C.3     
  37 C37            3.8842   -10.0163    -4.7628 C.3     
  38 C38            4.7598    -8.3834    -2.5316 C.2     
  39 O39            5.5663    -8.3212    -3.4384 O.2     
  40 H40           -0.8898     1.6887     1.1601 H       
  41 H41            3.6894    -1.3165    -0.3802 H       
  42 H42            5.6768     1.5929    -0.4351 H       
  43 H43            8.1291     1.6396    -0.6225 H       
  44 H44            9.4233    -0.4448    -0.4439 H       
  45 H45            5.6122    -3.4142    -1.8947 H       
  46 H46            6.9899    -4.0874    -0.9893 H       
  47 H47            4.0701    -4.9438    -0.7363 H       
  48 H48            4.1826    -4.5973     1.7016 H       
  49 H49            5.5669    -5.2954     2.5776 H       
  50 H50            7.1020    -3.7419     1.4420 H       
  51 H51            5.8032    -2.8259     2.2451 H       
  52 H52            5.2894    -5.7132    -2.7959 H       
  53 H53            6.5255    -6.4478    -1.7469 H       
  54 H54           -0.8894     4.7910     3.9306 H       
  55 H55           -0.8725     5.6633     2.3791 H       
  56 H56            1.5753     5.3068     2.2054 H       
  57 H57            1.5583     4.4345     3.7568 H       
  58 H58            0.6026     8.3132     2.1399 H       
  59 H59            1.4488     8.9913     3.5515 H       
  60 H60            2.0885     7.5405     2.7427 H       
  61 H61           -1.9828     7.2707     5.3129 H       
  62 H62           -1.1198     8.8211     5.1729 H       
  63 H63           -1.9659     8.1430     3.7614 H       
  64 H64            2.0596     6.0496     5.3945 H       
  65 H65            1.4199     7.5004     6.2032 H       
  66 H66            0.5568     5.9500     6.3431 H       
  67 H67            2.3468     2.4119     2.6283 H       
  68 H68            2.3637     3.2842     1.0768 H       
  69 H69            3.9930    -7.4060    -0.9437 H       
  70 H70            5.8270   -11.4242    -2.2887 H       
  71 H71            5.7594   -11.8484    -4.0161 H       
  72 H72            6.3002   -10.2273    -3.5182 H       
  73 H73            2.1915   -11.3387    -3.0845 H       
  74 H74            3.3600   -12.4974    -3.7628 H       
  75 H75            3.4276   -12.0732    -2.0355 H       
  76 H76            4.5650    -9.1962    -4.9908 H       
  77 H77            4.0242   -10.8173    -5.4886 H       
  78 H78            2.8557    -9.6586    -4.8104 H       
@<TRIPOS>BOND
   1    1    2 2
   2    1   23 1
   3    1   40 1
   4    2    5 1
   5    2    4 1
   6    3    4 2
   7    3    6 1
   8    3   23 1
   9    6    7 2
  10    6    8 am
  11    8    9 1
  12    8   41 1
  13    9   10 ar
  14    9   11 ar
  15   10   15 1
  16   10   14 ar
  17   11   12 ar
  18   11   42 1
  19   12   13 ar
  20   12   43 1
  21   13   14 ar
  22   13   44 1
  23   14   21 1
  24   15   16 1
  25   15   20 1
  26   16   17 1
  27   16   45 1
  28   16   46 1
  29   17   18 1
  30   17   22 1
  31   17   47 1
  32   18   19 1
  33   19   20 1
  34   19   48 1
  35   19   49 1
  36   20   50 1
  37   20   51 1
  38   22   32 1
  39   22   52 1
  40   22   53 1
  41   23   31 1
  42   24   25 1
  43   24   28 1
  44   24   29 1
  45   24   30 1
  46   25   26 1
  47   25   54 1
  48   25   55 1
  49   26   27 1
  50   26   56 1
  51   26   57 1
  52   27   31 1
  53   28   58 1
  54   28   59 1
  55   28   60 1
  56   29   61 1
  57   29   62 1
  58   29   63 1
  59   30   64 1
  60   30   65 1
  61   30   66 1
  62   31   67 1
  63   31   68 1
  64   32   38 am
  65   32   69 1
  66   33   34 1
  67   33   38 1
  68   34   35 1
  69   34   36 1
  70   34   37 1
  71   35   70 1
  72   35   71 1
  73   35   72 1
  74   36   73 1
  75   36   74 1
  76   36   75 1
  77   37   76 1
  78   37   77 1
  79   37   78 1
  80   38   39 2

#	End of record

