#	Name: ASD09740355
#	Creating user name:	WinNT
#	Creation time:	15. 06. 2019 21:23

#	Modifying user name:	WinNT
#	Modification time:	15. 06. 2019 21:23

#	Program:	/corina/corina34_cracker 3.40 0067  02.08.2006

@<TRIPOS>MOLECULE
ASD09740355
  57   60    0    0    0
SMALL
NO_CHARGES


@<TRIPOS>ATOM
   1 O1            -0.0157     1.4659    -0.2536 O.3     
   2 O2             0.0995     4.1559    -0.8223 O.3     
   3 N3             6.1134    -0.4066     0.1196 N.2     
   4 O4             4.9451    -0.0876     0.0567 O.3     
   5 C5             6.8809     0.6311    -0.1021 C.2     
   6 N6             6.0728     1.6898    -0.3224 N.2     
   7 C7             4.8424     1.2222    -0.2191 C.2     
   8 C8             3.5923     1.9925    -0.3773 C.ar    
   9 C9             8.3628     0.6413    -0.1094 C.ar    
  10 C10            9.0750    -0.2921    -0.8833 C.ar    
  11 C11           10.4810    -0.2739    -0.8832 C.ar    
  12 C12           11.1536     0.6707    -0.1156 C.ar    
  13 C13           10.4456     1.5822     0.6395 C.ar    
  14 C14            9.0609     1.5767     0.6438 C.ar    
  15 C15            2.3560     1.3568    -0.2386 C.ar    
  16 C16            1.1894     2.0818    -0.3876 C.ar    
  17 C17            1.2477     3.4443    -0.6757 C.ar    
  18 C18            2.4755     4.0754    -0.8134 C.ar    
  19 C19            3.6436     3.3587    -0.6602 C.ar    
  20 C20            0.2321     5.5479    -1.1169 C.3     
  21 C21           -1.1568     6.1766    -1.2453 C.3     
  22 C22           -0.0006     0.0677     0.0413 C.3     
  23 C23           -1.4376    -0.4452     0.1544 C.3     
  24 N24           10.8998    -1.2865    -1.7181 N.pl3   
  25 C25            9.8160    -1.9364    -2.2398 C.2     
  26 C26            8.6832    -1.3832    -1.7741 C.2     
  27 C27            7.2759    -1.8074    -2.1066 C.3     
  28 N28            6.6710    -0.8263    -3.0174 N.3     
  29 C29            5.2955    -1.2080    -3.3642 C.3     
  30 C30            4.7002    -0.1647    -4.3118 C.3     
  31 O31            5.4189    -0.1779    -5.5468 O.3     
  32 H32           12.2334     0.6904    -0.1104 H       
  33 H33           10.9779     2.3113     1.2324 H       
  34 H34            8.5219     2.2974     1.2407 H       
  35 H35            2.3124     0.3010    -0.0157 H       
  36 H36            2.5166     5.1313    -1.0366 H       
  37 H37            4.5981     3.8524    -0.7680 H       
  38 H38            0.7802     6.0388    -0.3127 H       
  39 H39            0.7747     5.6708    -2.0542 H       
  40 H40           -1.6994     6.0536    -0.3079 H       
  41 H41           -1.0557     7.2384    -1.4700 H       
  42 H42           -1.7049     5.6856    -2.0494 H       
  43 H43            0.5141    -0.4665    -0.7573 H       
  44 H44            0.5200    -0.0991     0.9843 H       
  45 H45           -1.4260    -1.5117     0.3793 H       
  46 H46           -1.9523     0.0890     0.9530 H       
  47 H47           -1.9582    -0.2784    -0.7886 H       
  48 H48           11.8255    -1.5054    -1.9079 H       
  49 H49            9.8631    -2.7702    -2.9246 H       
  50 H50            7.2952    -2.7856    -2.5872 H       
  51 H51            6.6875    -1.8640    -1.1908 H       
  52 H52            6.6998     0.1010    -2.6209 H       
  53 H53            5.3010    -2.1820    -3.8534 H       
  54 H54            4.6933    -1.2605    -2.4571 H       
  55 H55            3.6523    -0.3995    -4.4987 H       
  56 H56            4.7757     0.8234    -3.8580 H       
  57 H57            5.0951     0.4603    -6.1972 H       
@<TRIPOS>BOND
   1    1   22 1
   2    1   16 1
   3    2   20 1
   4    2   17 1
   5    3    4 1
   6    3    5 2
   7    4    7 1
   8    5    6 1
   9    5    9 1
  10    6    7 2
  11    7    8 1
  12    8   15 ar
  13    8   19 ar
  14    9   10 ar
  15    9   14 ar
  16   10   11 ar
  17   10   26 1
  18   11   12 ar
  19   11   24 1
  20   12   13 ar
  21   12   32 1
  22   13   14 ar
  23   13   33 1
  24   14   34 1
  25   15   16 ar
  26   15   35 1
  27   16   17 ar
  28   17   18 ar
  29   18   19 ar
  30   18   36 1
  31   19   37 1
  32   20   21 1
  33   20   38 1
  34   20   39 1
  35   21   40 1
  36   21   41 1
  37   21   42 1
  38   22   23 1
  39   22   43 1
  40   22   44 1
  41   23   45 1
  42   23   46 1
  43   23   47 1
  44   24   25 1
  45   24   48 1
  46   25   26 2
  47   25   49 1
  48   26   27 1
  49   27   28 1
  50   27   50 1
  51   27   51 1
  52   28   29 1
  53   28   52 1
  54   29   30 1
  55   29   53 1
  56   29   54 1
  57   30   31 1
  58   30   55 1
  59   30   56 1
  60   31   57 1

#	End of record

