#	Name: ASD01910871
#	Creating user name:	WinNT
#	Creation time:	15. 06. 2019 19:56

#	Modifying user name:	WinNT
#	Modification time:	15. 06. 2019 19:56

#	Program:	/corina/corina34_cracker 3.40 0067  02.08.2006

@<TRIPOS>MOLECULE
ASD01910871
  48   51    0    0    0
SMALL
NO_CHARGES


@<TRIPOS>ATOM
   1 C1             0.0646     1.7120    -0.4118 C.ar    
   2 N2             0.1105     0.6221     0.3286 N.ar    
   3 C3             1.2317    -0.0909     0.3938 C.ar    
   4 C4             2.3628     0.3245    -0.3296 C.ar    
   5 N5             2.3011     1.4239    -1.0707 N.ar    
   6 C6             1.1806     2.1216    -1.1254 C.ar    
   7 N7             3.5351    -0.4089    -0.2693 N.3     
   8 C8             4.7098     0.4725    -0.3013 C.3     
   9 C9             5.9737    -0.3570    -0.0512 C.3     
  10 N10            6.0025    -1.4669    -1.0157 N.am    
  11 C11            4.8059    -2.3131    -1.1389 C.3     
  12 C12            3.5879    -1.4065    -1.3463 C.3     
  13 C13            7.0964    -1.7022    -1.7671 C.2     
  14 C14            7.1527    -2.8962    -2.6375 C.ar    
  15 C15            7.7174    -2.8072    -3.9118 C.ar    
  16 C16            7.7712    -3.9211    -4.7268 C.ar    
  17 C17            7.2681    -5.1295    -4.2892 C.ar    
  18 C18            6.6994    -5.2333    -3.0159 C.ar    
  19 C19            6.6478    -4.1136    -2.1859 C.ar    
  20 C20            6.1772    -6.4874    -2.5629 C.1     
  21 O21            8.0366    -0.9327    -1.7293 O.2     
  22 C22            5.7491    -7.5156    -2.1915 C.1     
  23 C23            5.2269    -8.7696    -1.7385 C.ar    
  24 C24            4.6566    -8.8849    -0.4684 C.ar    
  25 N25            4.1767   -10.0384    -0.0526 N.ar    
  26 C26            4.2127   -11.1206    -0.8061 C.ar    
  27 C27            4.7612   -11.0899    -2.0760 C.ar    
  28 C28            5.2738    -9.9014    -2.5639 C.ar    
  29 C29            1.2860    -1.2750     1.1972 C.1     
  30 N30            1.3291    -2.2144     1.8345 N.1     
  31 H31           -0.8484     2.2863    -0.4663 H       
  32 H32            1.1335     3.0156    -1.7295 H       
  33 H33            4.7774     0.9531    -1.2773 H       
  34 H34            4.6148     1.2334     0.4734 H       
  35 H35            6.8555     0.2692    -0.1870 H       
  36 H36            5.9560    -0.7542     0.9637 H       
  37 H37            4.9156    -2.9802    -1.9940 H       
  38 H38            4.6759    -2.8984    -0.2286 H       
  39 H39            2.6794    -2.0085    -1.3294 H       
  40 H40            3.6711    -0.8998    -2.3077 H       
  41 H41            8.1127    -1.8648    -4.2611 H       
  42 H42            8.2087    -3.8459    -5.7113 H       
  43 H43            7.3134    -5.9965    -4.9316 H       
  44 H44            6.2099    -4.1876    -1.2015 H       
  45 H45            4.6093    -8.0208     0.1779 H       
  46 H46            3.8074   -12.0464    -0.4252 H       
  47 H47            4.7847   -11.9836    -2.6819 H       
  48 H48            5.7077    -9.8492    -3.5515 H       
@<TRIPOS>BOND
   1    1    2 ar
   2    1    6 ar
   3    1   31 1
   4    2    3 ar
   5    3    4 ar
   6    3   29 1
   7    4    5 ar
   8    4    7 1
   9    5    6 ar
  10    6   32 1
  11    7    8 1
  12    7   12 1
  13    8    9 1
  14    8   33 1
  15    8   34 1
  16    9   10 1
  17    9   35 1
  18    9   36 1
  19   10   11 1
  20   10   13 am
  21   11   12 1
  22   11   37 1
  23   11   38 1
  24   12   39 1
  25   12   40 1
  26   13   14 1
  27   13   21 2
  28   14   15 ar
  29   14   19 ar
  30   15   16 ar
  31   15   41 1
  32   16   17 ar
  33   16   42 1
  34   17   18 ar
  35   17   43 1
  36   18   19 ar
  37   18   20 1
  38   19   44 1
  39   20   22 3
  40   22   23 1
  41   23   24 ar
  42   23   28 ar
  43   24   25 ar
  44   24   45 1
  45   25   26 ar
  46   26   27 ar
  47   26   46 1
  48   27   28 ar
  49   27   47 1
  50   28   48 1
  51   29   30 3

#	End of record

