#	Name: ASD01230338
#	Creating user name:	WinNT
#	Creation time:	15. 06. 2019 19:14

#	Modifying user name:	WinNT
#	Modification time:	15. 06. 2019 19:14

#	Program:	/corina/corina34_cracker 3.40 0067  02.08.2006

@<TRIPOS>MOLECULE
ASD01230338
  36   38    0    0    0
SMALL
NO_CHARGES


@<TRIPOS>ATOM
   1 C1            -0.1317     1.4649    -0.3945 C.ar    
   2 C2            -0.1875     0.1084    -0.6261 C.ar    
   3 C3             0.9760    -0.6385    -0.6895 C.ar    
   4 C4             2.1982    -0.0162    -0.5054 C.ar    
   5 C5             2.2543     1.3401    -0.2598 C.ar    
   6 C6             1.0990     2.1059    -0.2204 C.ar    
   7 N7             1.0895     3.4843    -0.0546 N.3     
   8 S8             3.8215     2.1059     0.0391 S.o2    
   9 N9             3.4651     3.7371     0.1059 N.am    
  10 C10            2.1688     4.0618     0.7359 C.3     
  11 Cl11           0.9025    -2.3454    -0.9974 Cl      
  12 O12            4.2289     1.7180     1.3440 O.2     
  13 O13            4.6098     1.9024    -1.1256 O.2     
  14 C14            4.3667     4.7649    -0.4203 C.3     
  15 C15           -0.2197     3.9481     0.4237 C.3     
  16 C16           -0.1578     5.4513     0.7020 C.3     
  17 C17           -1.5214     5.9343     1.2001 C.3     
  18 C18           -1.6341     7.3933     1.6468 C.3     
  19 C19           -2.2736     6.9445     0.3314 C.3     
  20 H20           -1.0455     2.0390    -0.3515 H       
  21 H21           -1.1442    -0.3751    -0.7586 H       
  22 H22            3.1097    -0.5935    -0.5536 H       
  23 H23            2.0472     5.1441     0.7818 H       
  24 H24            2.1420     3.6492     1.7445 H       
  25 H25            5.2555     4.2903    -0.8360 H       
  26 H26            3.8574     5.3297    -1.2012 H       
  27 H27            4.6579     5.4395     0.3848 H       
  28 H28           -0.9752     3.7502    -0.3367 H       
  29 H29           -0.4798     3.4192     1.3406 H       
  30 H30            0.5977     5.6492     1.4623 H       
  31 H31            0.1022     5.9802    -0.2149 H       
  32 H32           -2.1133     5.1954     1.7404 H       
  33 H33           -2.3004     7.6144     2.4807 H       
  34 H34           -0.7367     8.0091     1.5858 H       
  35 H35           -1.7970     7.2649    -0.5951 H       
  36 H36           -3.3606     6.8702     0.2998 H       
@<TRIPOS>BOND
   1    1    2 ar
   2    1    6 ar
   3    1   20 1
   4    2    3 ar
   5    2   21 1
   6    3    4 ar
   7    3   11 1
   8    4    5 ar
   9    4   22 1
  10    5    6 ar
  11    5    8 1
  12    6    7 1
  13    7   10 1
  14    7   15 1
  15    8    9 am
  16    8   12 2
  17    8   13 2
  18    9   10 1
  19    9   14 1
  20   10   23 1
  21   10   24 1
  22   14   25 1
  23   14   26 1
  24   14   27 1
  25   15   16 1
  26   15   28 1
  27   15   29 1
  28   16   17 1
  29   16   30 1
  30   16   31 1
  31   17   18 1
  32   17   19 1
  33   17   32 1
  34   18   19 1
  35   18   33 1
  36   18   34 1
  37   19   35 1
  38   19   36 1

#	End of record

