#	Name: ASD00311033
#	Creating user name:	WinNT
#	Creation time:	15. 06. 2019 18:34

#	Modifying user name:	WinNT
#	Modification time:	15. 06. 2019 18:34

#	Program:	/corina/corina34_cracker 3.40 0067  02.08.2006

@<TRIPOS>MOLECULE
ASD00311033
  32   34    0    0    0
SMALL
NO_CHARGES


@<TRIPOS>ATOM
   1 C1            -0.0158     1.3148     0.0093 C.ar    
   2 N2             0.0021    -0.0041     0.0020 N.ar    
   3 C3             1.1304    -0.6886    -0.0125 C.ar    
   4 C4             2.3540    -0.0402    -0.0207 C.ar    
   5 C5             2.3795     1.3571    -0.0135 C.ar    
   6 C6             1.1581     2.0404     0.0020 C.ar    
   7 C7             3.6677     3.5596    -0.0135 C.2     
   8 C8             3.6643     2.0949    -0.0213 C.2     
   9 C9             6.0700     6.3899    -0.0205 C.ar    
  10 C10            4.8413     5.7046    -0.0128 C.ar    
  11 C11            4.8378     4.2316    -0.0207 C.2     
  12 C12            6.0856     7.7528    -0.0129 C.ar    
  13 C13            4.8528     8.4350     0.0026 C.ar    
  14 C14            3.6470     7.6861     0.0097 C.ar    
  15 N15            3.6899     6.3538     0.0017 N.ar    
  16 O16            4.7162     1.4843    -0.0343 O.2     
  17 C17            2.4170     8.3708     0.0252 C.ar    
  18 C18            2.4020     9.7312     0.0331 C.ar    
  19 C19            3.5877    10.4636     0.0261 C.ar    
  20 C20            4.7971     9.8370     0.0115 C.ar    
  21 F21            1.0912    -2.0391    -0.0189 F       
  22 H22           -0.9626     1.8343     0.0166 H       
  23 H23            3.2742    -0.6054    -0.0322 H       
  24 H24            1.1345     3.1201     0.0076 H       
  25 H25            2.7337     4.1018    -0.0020 H       
  26 H26            6.9981     5.8376    -0.0278 H       
  27 H27            5.7718     3.6894    -0.0322 H       
  28 H28            7.0190     8.2960    -0.0182 H       
  29 H29            1.4891     7.8183     0.0305 H       
  30 H30            1.4559    10.2520     0.0446 H       
  31 H31            3.5471    11.5428     0.0322 H       
  32 H32            5.7085    10.4164     0.0065 H       
@<TRIPOS>BOND
   1    1    2 ar
   2    1    6 ar
   3    1   22 1
   4    2    3 ar
   5    3    4 ar
   6    3   21 1
   7    4    5 ar
   8    4   23 1
   9    5    6 ar
  10    5    8 1
  11    6   24 1
  12    7    8 1
  13    7   11 2
  14    7   25 1
  15    8   16 2
  16    9   10 ar
  17    9   12 ar
  18    9   26 1
  19   10   11 1
  20   10   15 ar
  21   11   27 1
  22   12   13 ar
  23   12   28 1
  24   13   14 ar
  25   13   20 ar
  26   14   15 ar
  27   14   17 ar
  28   17   18 ar
  29   17   29 1
  30   18   19 ar
  31   18   30 1
  32   19   20 ar
  33   19   31 1
  34   20   32 1

#	End of record

