#	Name: ASD03092863
#	Creating user name:	WinNT
#	Creation time:	15. 06. 2019 20:33

#	Modifying user name:	WinNT
#	Modification time:	15. 06. 2019 20:33

#	Program:	/corina/corina34_cracker 3.40 0067  02.08.2006

@<TRIPOS>MOLECULE
ASD03092863
  45   48    0    0    0
SMALL
NO_CHARGES


@<TRIPOS>ATOM
   1 C1            -4.5638    -5.0408    -0.9149 C.3     
   2 N2            -3.1977    -4.5829    -0.6494 N.pl3   
   3 C3            -2.3401    -4.1234    -1.5917 C.2     
   4 C4            -1.1543    -3.7801    -1.0084 C.2     
   5 C5             0.0336    -3.2409    -1.6827 C.2     
   6 O6             0.9969    -2.8869    -1.0280 O.2     
   7 C7             0.0595    -3.1282    -3.1531 C.ar    
   8 C8            -0.0966    -1.8845    -3.7753 C.ar    
   9 C9            -0.0648    -1.8323    -5.1577 C.ar    
  10 C10            0.1185    -2.9981    -5.8795 C.ar    
  11 N11            0.2634    -4.1611    -5.2747 N.ar    
  12 C12            0.2473    -4.2675    -3.9552 C.ar    
  13 N13            0.4096    -5.5065    -3.3629 N.pl3   
  14 C14            0.4925    -6.7103    -4.1938 C.3     
  15 C15            0.6670    -7.9190    -3.3108 C.ar    
  16 C16            1.9358    -8.3446    -2.9645 C.ar    
  17 C17            2.0959    -9.4533    -2.1545 C.ar    
  18 C18            0.9872   -10.1362    -1.6906 C.ar    
  19 C19           -0.2817    -9.7102    -2.0362 C.ar    
  20 C20           -0.4419    -8.5989    -2.8426 C.ar    
  21 C21           -1.3022    -4.0573     0.4325 C.ar    
  22 C22           -0.4624    -3.9208     1.5344 C.ar    
  23 C23           -0.9144    -4.2798     2.7857 C.ar    
  24 C24           -2.2005    -4.7755     2.9497 C.ar    
  25 Cl25          -2.7543    -5.2232     4.5329 Cl      
  26 C26           -3.0427    -4.9152     1.8663 C.ar    
  27 C27           -2.6056    -4.5534     0.5967 C.ar    
  28 H28           -5.2509    -4.1982    -0.8378 H       
  29 H29           -4.6170    -5.4625    -1.9186 H       
  30 H30           -4.8398    -5.8025    -0.1856 H       
  31 H31           -2.5609    -4.0413    -2.6457 H       
  32 H32           -0.2389    -0.9874    -3.1909 H       
  33 H33           -0.1825    -0.8885    -5.6693 H       
  34 H34            0.1430    -2.9551    -6.9584 H       
  35 H35            0.4686    -5.5786    -2.3974 H       
  36 H36           -0.4237    -6.8143    -4.7751 H       
  37 H37            1.3440    -6.6278    -4.8692 H       
  38 H38            2.8020    -7.8110    -3.3269 H       
  39 H39            3.0872    -9.7862    -1.8845 H       
  40 H40            1.1123   -11.0029    -1.0584 H       
  41 H41           -1.1479   -10.2439    -1.6740 H       
  42 H42           -1.4332    -8.2637    -3.1095 H       
  43 H43            0.5388    -3.5357     1.4092 H       
  44 H44           -0.2651    -4.1755     3.6424 H       
  45 H45           -4.0417    -5.3016     2.0045 H       
@<TRIPOS>BOND
   1    1    2 1
   2    1   28 1
   3    1   29 1
   4    1   30 1
   5    2   27 1
   6    2    3 1
   7    3    4 2
   8    3   31 1
   9    4    5 1
  10    4   21 1
  11    5    6 2
  12    5    7 1
  13    7   12 ar
  14    7    8 ar
  15    8    9 ar
  16    8   32 1
  17    9   10 ar
  18    9   33 1
  19   10   11 ar
  20   10   34 1
  21   11   12 ar
  22   12   13 1
  23   13   14 1
  24   13   35 1
  25   14   15 1
  26   14   36 1
  27   14   37 1
  28   15   20 ar
  29   15   16 ar
  30   16   17 ar
  31   16   38 1
  32   17   18 ar
  33   17   39 1
  34   18   19 ar
  35   18   40 1
  36   19   20 ar
  37   19   41 1
  38   20   42 1
  39   21   27 ar
  40   21   22 ar
  41   22   23 ar
  42   22   43 1
  43   23   24 ar
  44   23   44 1
  45   24   25 1
  46   24   26 ar
  47   26   27 ar
  48   26   45 1

#	End of record

