#	Name: ASD08170145
#	Creating user name:	WinNT
#	Creation time:	15. 06. 2019 21:17

#	Modifying user name:	WinNT
#	Modification time:	15. 06. 2019 21:17

#	Program:	/corina/corina34_cracker 3.40 0067  02.08.2006

@<TRIPOS>MOLECULE
ASD08170145
  67   70    0    0    0
SMALL
NO_CHARGES


@<TRIPOS>ATOM
   1 Cl1            0.0000     0.0000     0.0000 Cl      
   2 H2             0.0000     1.3700     0.0000 H       
   3 Cl3            5.0000     6.3700     5.0000 Cl      
   4 H4             5.0000     7.7400     5.0000 H       
   5 C5            13.1938    25.7976    12.1100 C.3     
   6 C6            16.3663    28.5731    12.0946 C.3     
   7 C7            16.5181    30.0955    12.1013 C.3     
   8 C8            17.9817    30.4544    12.0893 C.2     
   9 C9            13.2142    24.2907    12.1017 C.2     
  10 S10           19.0057    30.6946    13.5054 S.3     
  11 C11           20.3284    31.0263    12.4685 C.2     
  12 N12           19.9249    30.9366    11.2371 N.2     
  13 N13           18.7150    30.6365    11.0373 N.2     
  14 S14           13.2147    23.2581    10.6716 S.3     
  15 N15           13.2402    23.5213    13.1433 N.2     
  16 N16           13.2544    22.2777    12.9267 N.2     
  17 C17           13.2438    21.8808    11.6899 C.2     
  18 N18           13.2560    20.5572    11.2632 N.am    
  19 C19           13.2815    19.5579    12.1672 C.2     
  20 O20           13.2939    19.8129    13.3528 O.2     
  21 N21           21.6202    31.3399    12.8774 N.am    
  22 C22           22.5776    31.5812    11.9600 C.2     
  23 C23           23.9773    31.9211    12.4030 C.3     
  24 O24           22.3126    31.5247    10.7778 O.2     
  25 C25           13.2948    18.1237    11.7047 C.3     
  26 O26           13.4049    17.2286    12.8243 O.3     
  27 C27           14.6292    26.3272    12.0991 C.3     
  28 O28           24.8511    32.0578    11.2697 O.3     
  29 S29           14.6046    28.1410    12.1091 S.3     
  30 C30           12.7002    16.0932    12.5632 C.ar    
  31 C31           11.7812    16.2950    11.5418 C.ar    
  32 C32           11.9306    17.7342    11.0877 C.3     
  33 C33           24.0230    33.3290    13.0427 C.3     
  34 C34           25.3702    33.8426    12.5727 C.ar    
  35 C35           25.7777    33.0209    11.5301 C.ar    
  36 C36           26.1564    34.8933    12.9915 C.ar    
  37 C37           27.3719    35.1362    12.3748 C.ar    
  38 C38           27.7911    34.3202    11.3387 C.ar    
  39 C39           27.0031    33.2699    10.9165 C.ar    
  40 Cl40          28.3659    36.4594    12.8988 Cl      
  41 C41           12.7815    14.8357    13.1565 C.ar    
  42 C42           11.9555    13.8142    12.7362 C.ar    
  43 C43           11.0392    14.0287    11.7217 C.ar    
  44 C44           10.9548    15.2750    11.1248 C.ar    
  45 Cl45          10.0000    12.7400    11.1991 Cl      
  46 H46           12.6666    26.1587    11.2269 H       
  47 H47           12.6836    26.1491    13.0068 H       
  48 H48           16.8330    28.1653    11.1979 H       
  49 H49           16.8500    28.1558    12.9778 H       
  50 H50           16.0344    30.5128    11.2182 H       
  51 H51           16.0514    30.5032    12.9980 H       
  52 H52           13.2461    20.3533    10.3149 H       
  53 H53           21.8321    31.3851    13.8229 H       
  54 H54           24.3557    31.1676    13.0938 H       
  55 H55           14.1048    17.9558    10.9950 H       
  56 H56           15.1563    25.9661    12.9822 H       
  57 H57           15.1393    25.9756    11.2023 H       
  58 H58           11.1297    18.3547    11.4897 H       
  59 H59           11.9625    17.7982    10.0000 H       
  60 H60           23.2142    33.9548    12.6654 H       
  61 H61           23.9885    33.2641    14.1302 H       
  62 H62           25.8246    35.5274    13.8003 H       
  63 H63           28.7399    34.5071    10.8578 H       
  64 H64           27.3377    32.6378    10.1072 H       
  65 H65           13.4943    14.6597    13.9485 H       
  66 H66           12.0245    12.8418    13.2011 H       
  67 H67           10.2415    15.4473    10.3323 H       
@<TRIPOS>BOND
   1    1    2 1
   2    3    4 1
   3    5    9 1
   4    5   27 1
   5    5   46 1
   6    5   47 1
   7    6    7 1
   8    6   29 1
   9    6   48 1
  10    6   49 1
  11    7    8 1
  12    7   50 1
  13    7   51 1
  14    8   10 1
  15    8   13 2
  16    9   14 1
  17    9   15 2
  18   10   11 1
  19   11   12 2
  20   11   21 1
  21   12   13 1
  22   14   17 1
  23   15   16 1
  24   16   17 2
  25   17   18 1
  26   18   19 am
  27   18   52 1
  28   19   20 2
  29   19   25 1
  30   21   22 am
  31   21   53 1
  32   22   23 1
  33   22   24 2
  34   23   28 1
  35   23   33 1
  36   23   54 1
  37   25   26 1
  38   25   32 1
  39   25   55 1
  40   26   30 1
  41   27   29 1
  42   27   56 1
  43   27   57 1
  44   28   35 1
  45   30   31 ar
  46   30   41 ar
  47   31   32 1
  48   31   44 ar
  49   32   58 1
  50   32   59 1
  51   33   34 1
  52   33   60 1
  53   33   61 1
  54   34   35 ar
  55   34   36 ar
  56   35   39 ar
  57   36   37 ar
  58   36   62 1
  59   37   38 ar
  60   37   40 1
  61   38   39 ar
  62   38   63 1
  63   39   64 1
  64   41   42 ar
  65   41   65 1
  66   42   43 ar
  67   42   66 1
  68   43   44 ar
  69   43   45 1
  70   44   67 1

#	End of record

