#	Name: ASD01812716
#	Creating user name:	WinNT
#	Creation time:	15. 06. 2019 19:29

#	Modifying user name:	WinNT
#	Modification time:	15. 06. 2019 19:29

#	Program:	/corina/corina34_cracker 3.40 0067  02.08.2006

@<TRIPOS>MOLECULE
ASD01812716
  53   57    0    0    0
SMALL
NO_CHARGES


@<TRIPOS>ATOM
   1 C1             0.0575     1.4301    -0.6135 C.ar    
   2 C2             0.1011     0.0678    -0.8329 C.ar    
   3 C3             1.2831    -0.6332    -0.6468 C.ar    
   4 C4             2.4190     0.0257    -0.2429 C.ar    
   5 C5             2.3933     1.4052    -0.0165 C.ar    
   6 C6             1.1962     2.1092    -0.2055 C.ar    
   7 C7             3.8293    -0.4261     0.0437 C.3     
   8 N8             4.5723     0.7763     0.4379 N.am    
   9 C9             3.7392     1.8305     0.4016 C.2     
  10 C10            5.9886     0.8205     0.8101 C.3     
  11 C11            6.8239     1.0647    -0.4201 C.ar    
  12 C12            7.1228     2.3587    -0.8055 C.ar    
  13 C13            7.8882     2.5857    -1.9326 C.ar    
  14 C14            8.3576     1.5131    -2.6788 C.ar    
  15 C15            8.0559     0.2151    -2.2893 C.ar    
  16 C16            7.2948    -0.0057    -1.1581 C.ar    
  17 O17            1.1515     3.4479     0.0091 O.3     
  18 O18            4.0525     2.9729     0.6756 O.2     
  19 C19           -0.1276     4.0779    -0.0868 C.3     
  20 N20            9.5123     2.9911    -4.3284 N.2     
  21 N21            9.1343     1.7403    -3.8235 N.pl3   
  22 C22            9.6520     0.7908    -4.6353 C.2     
  23 C23           10.3344     1.4190    -5.6206 C.2     
  24 C24           10.2311     2.7976    -5.4049 C.2     
  25 C25           -0.1309     5.3598     0.7517 C.3     
  26 C26           -1.4791     6.0661     0.5793 C.3     
  27 C27           -1.7143     6.3439    -0.9077 C.3     
  28 O28           -1.6681     5.1140    -1.6339 O.3     
  29 C29           -0.4150     4.4325    -1.5480 C.3     
  30 O30            0.0637     5.0308     2.1287 O.3     
  31 H31           -0.8657     1.9700    -0.7644 H       
  32 H32           -0.7894    -0.4543    -1.1504 H       
  33 H33            1.3107    -1.6990    -0.8193 H       
  34 H34            3.8324    -1.1519     0.8568 H       
  35 H35            4.2719    -0.8634    -0.8514 H       
  36 H36            6.1512     1.6265     1.5256 H       
  37 H37            6.2754    -0.1293     1.2614 H       
  38 H38            6.7571     3.1926    -0.2249 H       
  39 H39            8.1210     3.5965    -2.2333 H       
  40 H40            8.4193    -0.6212    -2.8680 H       
  41 H41            7.0637    -1.0153    -0.8520 H       
  42 H42           -0.8965     3.3992     0.2824 H       
  43 H43            9.5410    -0.2771    -4.5182 H       
  44 H44           10.8654     0.9407    -6.4304 H       
  45 H45           10.6692     3.5692    -6.0206 H       
  46 H46            0.6709     6.0173     0.4157 H       
  47 H47           -2.2761     5.4280     0.9611 H       
  48 H48           -1.4701     7.0075     1.1287 H       
  49 H49           -2.6916     6.8080    -1.0407 H       
  50 H50           -0.9396     7.0147    -1.2792 H       
  51 H51            0.3768     5.0782    -1.9279 H       
  52 H52           -0.4562     3.5196    -2.1423 H       
  53 H53            0.0726     5.7970     2.7186 H       
@<TRIPOS>BOND
   1    1    2 ar
   2    1    6 ar
   3    1   31 1
   4    2    3 ar
   5    2   32 1
   6    3    4 ar
   7    3   33 1
   8    4    7 1
   9    4    5 ar
  10    5    6 ar
  11    5    9 1
  12    6   17 1
  13    7    8 1
  14    7   34 1
  15    7   35 1
  16    8    9 am
  17    8   10 1
  18    9   18 2
  19   10   11 1
  20   10   36 1
  21   10   37 1
  22   11   12 ar
  23   11   16 ar
  24   12   13 ar
  25   12   38 1
  26   13   14 ar
  27   13   39 1
  28   14   15 ar
  29   14   21 1
  30   15   16 ar
  31   15   40 1
  32   16   41 1
  33   17   19 1
  34   19   25 1
  35   19   29 1
  36   19   42 1
  37   20   21 1
  38   20   24 2
  39   21   22 1
  40   22   23 2
  41   22   43 1
  42   23   24 1
  43   23   44 1
  44   24   45 1
  45   25   26 1
  46   25   30 1
  47   25   46 1
  48   26   27 1
  49   26   47 1
  50   26   48 1
  51   27   28 1
  52   27   49 1
  53   27   50 1
  54   28   29 1
  55   29   51 1
  56   29   52 1
  57   30   53 1

#	End of record

