#	Name: ASD01882141
#	Creating user name:	WinNT
#	Creation time:	15. 06. 2019 19:44

#	Modifying user name:	WinNT
#	Modification time:	15. 06. 2019 19:44

#	Program:	/corina/corina34_cracker 3.40 0067  02.08.2006

@<TRIPOS>MOLECULE
ASD01882141
  52   55    0    0    0
SMALL
NO_CHARGES


@<TRIPOS>ATOM
   1 C1            -0.0159     1.3220     0.0093 C.2     
   2 N2             0.0021    -0.0041     0.0020 N.2     
   3 C3             1.1523    -0.6857    -0.0126 C.2     
   4 C4             2.3835     0.0173    -0.0206 C.2     
   5 C5             2.3523     1.3664    -0.0131 C.2     
   6 N6             1.1484     2.0132     0.0019 N.pl3   
   7 O7            -1.0993     2.1290     0.0184 O.3     
   8 C8             0.8540     3.4562     0.0125 C.3     
   9 C9            -0.6831     3.5211     0.0242 C.3     
  10 O10            1.1423    -1.9071    -0.0187 O.2     
  11 C11           -1.1944     4.2379    -1.2270 C.3     
  12 O12           -2.6209     4.3119    -1.1842 O.3     
  13 C13           -3.2386     4.9234    -2.2289 C.ar    
  14 C14           -4.6218     5.0305    -2.2523 C.ar    
  15 C15           -5.2472     5.6524    -3.3153 C.ar    
  16 C16           -4.4961     6.1677    -4.3558 C.ar    
  17 C17           -3.1179     6.0618    -4.3350 C.ar    
  18 C18           -2.4871     5.4465    -3.2708 C.ar    
  19 C19           -6.7495     5.7691    -3.3414 C.3     
  20 C20           -7.3372     4.6088    -4.1470 C.3     
  21 C21           -5.1811     6.8453    -5.5145 C.3     
  22 C22           -4.6973     8.2931    -5.6172 C.3     
  23 C23           -5.3928     8.9811    -6.7936 C.3     
  24 C24           -5.0583     8.2385    -8.0888 C.3     
  25 C25           -5.5422     6.7907    -7.9861 C.3     
  26 C26           -4.8467     6.1027    -6.8097 C.3     
  27 H27            3.3237    -0.5140    -0.0321 H       
  28 H28            3.2727     1.9314    -0.0185 H       
  29 H29            1.2651     3.9237     0.9072 H       
  30 H30            1.2480     3.9334    -0.8848 H       
  31 H31           -1.0396     4.0220     0.9243 H       
  32 H32           -0.7793     5.2451    -1.2639 H       
  33 H33           -0.8857     3.6850    -2.1142 H       
  34 H34           -5.2089     4.6276    -1.4403 H       
  35 H35           -2.5335     6.4647    -5.1490 H       
  36 H36           -1.4100     5.3683    -3.2527 H       
  37 H37           -7.1343     5.7354    -2.3221 H       
  38 H38           -7.0325     6.7138    -3.8055 H       
  39 H39           -8.4238     4.6932    -4.1659 H       
  40 H40           -6.9524     4.6425    -5.1663 H       
  41 H41           -7.0542     3.6640    -3.6828 H       
  42 H42           -6.2596     6.8329    -5.3567 H       
  43 H43           -4.9355     8.8221    -4.6944 H       
  44 H44           -3.6188     8.3055    -5.7750 H       
  45 H45           -6.4712     8.9687    -6.6357 H       
  46 H46           -5.0481    10.0125    -6.8667 H       
  47 H47           -5.5538     8.7286    -8.9269 H       
  48 H48           -3.9799     8.2509    -8.2466 H       
  49 H49           -6.6206     6.7783    -7.8283 H       
  50 H50           -5.3039     6.2617    -8.9089 H       
  51 H51           -3.7683     6.1151    -6.9675 H       
  52 H52           -5.1914     5.0712    -6.7366 H       
@<TRIPOS>BOND
   1    1    2 2
   2    1    6 1
   3    1    7 1
   4    2    3 1
   5    3    4 1
   6    3   10 2
   7    4    5 2
   8    4   27 1
   9    5    6 1
  10    5   28 1
  11    6    8 1
  12    7    9 1
  13    8    9 1
  14    8   29 1
  15    8   30 1
  16    9   11 1
  17    9   31 1
  18   11   12 1
  19   11   32 1
  20   11   33 1
  21   12   13 1
  22   13   14 ar
  23   13   18 ar
  24   14   15 ar
  25   14   34 1
  26   15   16 ar
  27   15   19 1
  28   16   17 ar
  29   16   21 1
  30   17   18 ar
  31   17   35 1
  32   18   36 1
  33   19   20 1
  34   19   37 1
  35   19   38 1
  36   20   39 1
  37   20   40 1
  38   20   41 1
  39   21   22 1
  40   21   26 1
  41   21   42 1
  42   22   23 1
  43   22   43 1
  44   22   44 1
  45   23   24 1
  46   23   45 1
  47   23   46 1
  48   24   25 1
  49   24   47 1
  50   24   48 1
  51   25   26 1
  52   25   49 1
  53   25   50 1
  54   26   51 1
  55   26   52 1

#	End of record

