#	Name: ASD02590008
#	Creating user name:	WinNT
#	Creation time:	15. 06. 2019 20:25

#	Modifying user name:	WinNT
#	Modification time:	15. 06. 2019 20:25

#	Program:	/corina/corina34_cracker 3.40 0067  02.08.2006

@<TRIPOS>MOLECULE
ASD02590008
  32   34    0    0    0
SMALL
NO_CHARGES


@<TRIPOS>ATOM
   1 C1            -0.0169     1.3926     0.0097 C.ar    
   2 C2             0.0021    -0.0041     0.0020 C.ar    
   3 C3            -1.1812    -0.7181     0.0099 C.ar    
   4 C4            -2.3950    -0.0449     0.0256 C.ar    
   5 C5            -2.4203     1.3613     0.0334 C.ar    
   6 C6            -1.2151     2.0737     0.0305 C.ar    
   7 N7            -3.7148    -0.4537     0.0365 N.pl3   
   8 C8            -4.4882     0.6766     0.0503 C.2     
   9 N9            -3.7214     1.7384     0.0484 N.2     
  10 C10           -5.9676     0.6953     0.0643 C.ar    
  11 C11           -6.6437     1.9145     0.0777 C.ar    
  12 C12           -8.0283     1.9155     0.0907 C.ar    
  13 C13           -8.6915     0.6971     0.0900 C.ar    
  14 C14           -7.9570    -0.4758     0.0764 C.ar    
  15 N15           -6.6409    -0.4494     0.0587 N.ar    
  16 O16            1.1543     2.0848     0.0022 O.3     
  17 C17            1.0651     3.5109     0.0107 C.3     
  18 O18            1.1908    -0.6645    -0.0138 O.3     
  19 C19            1.1394    -2.0926    -0.0209 C.3     
  20 H20           -1.1615    -1.7979     0.0036 H       
  21 H21           -1.2242     3.1537     0.0365 H       
  22 H22           -4.0339    -1.3697     0.0345 H       
  23 H23           -6.0953     2.8449     0.0782 H       
  24 H24           -8.5795     2.8442     0.1016 H       
  25 H25           -9.7709     0.6642     0.1003 H       
  26 H26           -8.4707    -1.4259     0.0758 H       
  27 H27            0.5211     3.8462    -0.8723 H       
  28 H28            0.5381     3.8367     0.9076 H       
  29 H29            2.0680     3.9378     0.0035 H       
  30 H30            0.6221    -2.4420     0.8726 H       
  31 H31            0.6037    -2.4325    -0.9072 H       
  32 H32            2.1533    -2.4925    -0.0335 H       
@<TRIPOS>BOND
   1    1    2 ar
   2    1   16 1
   3    1    6 ar
   4    2    3 ar
   5    2   18 1
   6    3    4 ar
   7    3   20 1
   8    4    5 ar
   9    4    7 1
  10    5    6 ar
  11    5    9 1
  12    6   21 1
  13    7    8 1
  14    7   22 1
  15    8    9 2
  16    8   10 1
  17   10   11 ar
  18   10   15 ar
  19   11   12 ar
  20   11   23 1
  21   12   13 ar
  22   12   24 1
  23   13   14 ar
  24   13   25 1
  25   14   15 ar
  26   14   26 1
  27   16   17 1
  28   17   27 1
  29   17   28 1
  30   17   29 1
  31   18   19 1
  32   19   30 1
  33   19   31 1
  34   19   32 1

#	End of record

