#	Name: ASD08070597
#	Creating user name:	WinNT
#	Creation time:	15. 06. 2019 21:15

#	Modifying user name:	WinNT
#	Modification time:	15. 06. 2019 21:15

#	Program:	/corina/corina34_cracker 3.40 0067  02.08.2006

@<TRIPOS>MOLECULE
ASD08070597
  40   40    0    0    0
SMALL
NO_CHARGES


@<TRIPOS>ATOM
   1 C1            -0.0162     1.3471     0.0094 C.2     
   2 C2             0.0021    -0.0041     0.0020 C.2     
   3 C3            -1.3336    -0.4354     0.0133 C.2     
   4 C4            -2.1089     0.6885     0.0272 C.2     
   5 O5            -1.2899     1.7606     0.0297 O.3     
   6 C6            -3.5750     0.7240     0.0416 C.2     
   7 N7            -4.2204     1.9071     0.0546 N.am    
   8 O8            -4.2088    -0.3149     0.0418 O.2     
   9 C9            -5.6849     1.9425     0.0690 C.3     
  10 C10           -6.1572     3.2583     0.6907 C.3     
  11 C11           -6.2117     1.8373    -1.3636 C.3     
  12 C12           -5.8455     0.4692    -1.9425 C.3     
  13 C13           -6.3723     0.3641    -3.3751 C.3     
  14 C14           -5.7366     3.3075     2.1610 C.3     
  15 C15            1.2263    -0.8826    -0.0159 C.3     
  16 C16            1.1968     2.2413     0.0027 C.3     
  17 C17           -6.2089     4.6233     2.7828 C.3     
  18 H18           -1.6808    -1.4580     0.0108 H       
  19 H19           -3.7152     2.7351     0.0545 H       
  20 H20           -6.0628     1.1063     0.6574 H       
  21 H21           -5.7074     4.0948     0.1560 H       
  22 H22           -7.2429     3.3240     0.6210 H       
  23 H23           -7.2955     1.9527    -1.3616 H       
  24 H24           -5.7639     2.6217    -1.9738 H       
  25 H25           -4.7616     0.3538    -1.9445 H       
  26 H26           -6.2933    -0.3152    -1.3323 H       
  27 H27           -5.9245     1.1484    -3.9853 H       
  28 H28           -6.1114    -0.6106    -3.7875 H       
  29 H29           -7.4562     0.4795    -3.3731 H       
  30 H30           -6.1864     2.4709     2.6957 H       
  31 H31           -4.6509     3.2417     2.2308 H       
  32 H32            1.5326    -1.1000     1.0073 H       
  33 H33            0.9971    -1.8148    -0.5323 H       
  34 H34            2.0348    -0.3686    -0.5358 H       
  35 H35            1.4794     2.4624    -1.0266 H       
  36 H36            0.9661     3.1705     0.5237 H       
  37 H37            2.0222     1.7377     0.5059 H       
  38 H38           -5.7592     5.4598     2.2480 H       
  39 H39           -7.2947     4.6890     2.7130 H       
  40 H40           -5.9093     4.6583     3.8302 H       
@<TRIPOS>BOND
   1    1    2 2
   2    1   16 1
   3    1    5 1
   4    2    3 1
   5    2   15 1
   6    3    4 2
   7    3   18 1
   8    4    5 1
   9    4    6 1
  10    6    7 am
  11    6    8 2
  12    7    9 1
  13    7   19 1
  14    9   10 1
  15    9   11 1
  16    9   20 1
  17   10   14 1
  18   10   21 1
  19   10   22 1
  20   11   12 1
  21   11   23 1
  22   11   24 1
  23   12   13 1
  24   12   25 1
  25   12   26 1
  26   13   27 1
  27   13   28 1
  28   13   29 1
  29   14   17 1
  30   14   30 1
  31   14   31 1
  32   15   32 1
  33   15   33 1
  34   15   34 1
  35   16   35 1
  36   16   36 1
  37   16   37 1
  38   17   38 1
  39   17   39 1
  40   17   40 1

#	End of record

