#	Name: ASD02860003
#	Creating user name:	WinNT
#	Creation time:	15. 06. 2019 20:26

#	Modifying user name:	WinNT
#	Modification time:	15. 06. 2019 20:26

#	Program:	/corina/corina34_cracker 3.40 0067  02.08.2006

@<TRIPOS>MOLECULE
ASD02860003
 192  199    0    0    0
SMALL
NO_CHARGES


@<TRIPOS>ATOM
   1 N1             1.9169     1.0152     4.5427 N.3     
   2 C2             2.2844    -0.4060     4.4865 C.3     
   3 C3             2.2275    -0.8835     3.0583 C.2     
   4 C4             1.3057    -1.2198     5.3356 C.3     
   5 N5             2.8908    -1.9987     2.6936 N.am    
   6 O6             1.5849    -0.2643     2.2370 O.2     
   7 C7             1.4505    -0.8275     6.7835 C.2     
   8 C8             2.2078    -1.4425     7.7055 C.2     
   9 N9             2.0876    -0.8035     8.9095 N.pl3   
  10 C10            1.2281     0.2654     8.7884 C.ar    
  11 C11            0.7963     0.3011     7.4501 C.ar    
  12 C12            0.7640     1.2271     9.6802 C.ar    
  13 C13           -0.1143     2.1955     9.2461 C.ar    
  14 C14           -0.5423     2.2226     7.9257 C.ar    
  15 C15           -0.0934     1.2924     7.0313 C.ar    
  16 C16            2.8355    -2.4629     1.3052 C.3     
  17 C17            3.3897    -1.3961     0.3965 C.2     
  18 N18            3.8160    -1.7193    -0.8406 N.am    
  19 O19            3.4521    -0.2466     0.7783 O.2     
  20 C20            1.3832    -2.7548     0.9225 C.3     
  21 C21            0.8598    -3.9228     1.7609 C.3     
  22 C22           -0.5925    -4.2147     1.3782 C.3     
  23 N23           -1.0937    -5.3330     2.1810 N.pl3   
  24 C24           -2.3835    -5.7774     2.0111 C.2     
  25 N25           -2.8539    -6.8269     2.7645 N.am    
  26 N26           -3.1605    -5.2038     1.1358 N.2     
  27 C27            4.3548    -0.6823    -1.7240 C.3     
  28 C28            4.7629    -1.3103    -3.0581 C.3     
  29 C29            5.3256    -0.2273    -3.9807 C.3     
  30 N30            5.7174    -0.8303    -5.2617 N.3     
  31 C31            6.2635     0.1824    -6.1751 C.3     
  32 C32            6.6594    -0.4820    -7.4952 C.3     
  33 C33            7.2281     0.5727    -8.4466 C.3     
  34 N34            7.6072    -0.0635    -9.7106 N.am    
  35 C35            8.1349     0.6765   -10.7058 C.2     
  36 C36            8.5249     0.0221   -12.0060 C.3     
  37 O37            8.2960     1.8690   -10.5549 O.2     
  38 N38            8.6109     1.0383   -13.0577 N.am    
  39 C39            9.4784     2.0626   -12.9357 C.2     
  40 C40            9.5668     3.1080   -14.0175 C.3     
  41 O41           10.1877     2.1430   -11.9553 O.2     
  42 N42           10.1859     4.3242   -13.4738 N.3     
  43 C43           10.4170     2.5757   -15.1728 C.3     
  44 C44           10.4046     3.5699   -16.3053 C.2     
  45 C45            9.5874     3.5572   -17.3701 C.2     
  46 N46            9.8698     4.6175   -18.1876 N.pl3   
  47 C47           10.9018     5.3572   -17.6551 C.ar    
  48 C48           11.2779     4.7372   -16.4497 C.ar    
  49 C49           11.5675     6.5075   -18.0664 C.ar    
  50 C50           12.5871     7.0206   -17.2954 C.ar    
  51 C51           12.9586     6.4014   -16.1096 C.ar    
  52 C52           12.3135     5.2751   -15.6831 C.ar    
  53 C53            9.8841    -0.6618   -11.8453 C.3     
  54 C54           10.2227    -1.4304   -13.1242 C.3     
  55 C55           11.5819    -2.1143   -12.9635 C.3     
  56 N56           11.9061    -2.8502   -14.1880 N.pl3   
  57 C57           13.0870    -3.5485   -14.2781 C.2     
  58 N58           13.9180    -3.5558   -13.2740 N.2     
  59 N59           13.3912    -4.2392   -15.4272 N.am    
  60 S60           -4.4241    -7.3264     2.5995 S.o2    
  61 O61           -4.6213    -7.5794     1.2151 O.2     
  62 O62           -4.6421    -8.3044     3.6070 O.2     
  63 C63           -5.4531    -5.9551     3.0062 C.ar    
  64 C64           -5.4518    -5.4470     4.2919 C.ar    
  65 C65           -6.2594    -4.3739     4.6098 C.ar    
  66 C66           -7.0758    -3.8009     3.6403 C.ar    
  67 C67           -7.0719    -4.3091     2.3528 C.ar    
  68 C68           -6.2571    -5.3837     2.0389 C.ar    
  69 O69           -7.8646    -2.7529     3.9936 O.3     
  70 C70           -8.4051    -1.9424     2.9493 C.3     
  71 C71           -9.0408    -2.8639     1.9006 C.3     
  72 C72           -7.9326    -3.7105     1.2694 C.3     
  73 C73           -6.2557    -5.9398     0.6382 C.3     
  74 C74           -4.5695    -6.0650     5.3458 C.3     
  75 C75           -6.2570    -3.8216     6.0119 C.3     
  76 C76           -9.4688    -1.0043     3.5233 C.3     
  77 C77           -7.2873    -1.1211     2.3036 C.3     
  78 S78           14.7413    -5.1964   -15.4851 S.o2    
  79 O79           14.6862    -6.0374   -14.3410 O.2     
  80 O80           14.8229    -5.6952   -16.8132 O.2     
  81 C81           16.1368    -4.1440   -15.2623 C.ar    
  82 C82           16.4402    -3.1874   -16.2131 C.ar    
  83 C83           17.5344    -2.3646   -16.0384 C.ar    
  84 C84           18.3344    -2.4945   -14.9078 C.ar    
  85 C85           18.0257    -3.4504   -13.9555 C.ar    
  86 C86           16.9247    -4.2707   -14.1346 C.ar    
  87 O87           19.4089    -1.6739   -14.7760 O.3     
  88 C88           19.9969    -1.5468   -13.4806 C.3     
  89 C89           20.2241    -2.9531   -12.9117 C.3     
  90 C90           18.8594    -3.6167   -12.7104 C.3     
  91 C91           16.5908    -5.3143   -13.0999 C.3     
  92 C92           15.5769    -3.0434   -17.4399 C.3     
  93 C93           17.8639    -1.3226   -17.0759 C.3     
  94 C94           21.3351    -0.8136   -13.5920 C.3     
  95 C95           19.0554    -0.7653   -12.5620 C.3     
  96 H96            2.5855     1.5815     4.0424 H       
  97 H97            0.9831     1.1614     4.1896 H       
  98 H98            3.2953    -0.5355     4.8729 H       
  99 H99            0.2861    -1.0211     5.0055 H       
 100 H100           1.5235    -2.2819     5.2235 H       
 101 H101           3.4048    -2.4939     3.3505 H       
 102 H102           2.8207    -2.3130     7.5241 H       
 103 H103           2.5401    -1.0648     9.7267 H       
 104 H104           1.0908     1.2142    10.7094 H       
 105 H105          -0.4737     2.9409     9.9400 H       
 106 H106          -1.2314     2.9885     7.6016 H       
 107 H107          -0.4307     1.3197     6.0057 H       
 108 H108           3.4282    -3.3718     1.2021 H       
 109 H109           3.7661    -2.6387    -1.1459 H       
 110 H110           0.7734    -1.8710     1.1099 H       
 111 H111           1.3313    -3.0146    -0.1348 H       
 112 H112           1.4697    -4.8066     1.5735 H       
 113 H113           0.9118    -3.6630     2.8182 H       
 114 H114          -1.2023    -3.3309     1.5656 H       
 115 H115          -0.6444    -4.4745     0.3209 H       
 116 H116          -0.5154    -5.7600     2.8324 H       
 117 H117          -2.2659    -7.2748     3.3927 H       
 118 H118          -4.0496    -5.5555     0.9723 H       
 119 H119           3.5935     0.0781    -1.8982 H       
 120 H120           5.2262    -0.2236    -1.2567 H       
 121 H121           5.5242    -2.0707    -2.8839 H       
 122 H122           3.8915    -1.7690    -3.5254 H       
 123 H123           4.5643     0.5331    -4.1549 H       
 124 H124           6.1970     0.2314    -3.5134 H       
 125 H125           6.3750    -1.5825    -5.1211 H       
 126 H126           5.5087     0.9456    -6.3645 H       
 127 H127           7.1414     0.6439    -5.7230 H       
 128 H128           7.4142    -1.2453    -7.3058 H       
 129 H129           5.7815    -0.9435    -7.9473 H       
 130 H130           6.4733     1.3359    -8.6360 H       
 131 H131           8.1060     1.0342    -7.9945 H       
 132 H132           7.4783    -1.0173    -9.8313 H       
 133 H133           7.7747    -0.7202   -12.2786 H       
 134 H134           8.0435     0.9741   -13.8418 H       
 135 H135           8.5658     3.3410   -14.3804 H       
 136 H136          11.1156     4.1342   -13.1306 H       
 137 H137          10.1982     5.0622   -14.1616 H       
 138 H138          11.4414     2.4266   -14.8315 H       
 139 H139          10.0073     1.6265   -15.5182 H       
 140 H140           8.8209     2.8190   -17.5547 H       
 141 H141           9.4114     4.8180   -19.0186 H       
 142 H142          11.2860     6.9963   -18.9875 H       
 143 H143          13.1028     7.9135   -17.6166 H       
 144 H144          13.7604     6.8165   -15.5169 H       
 145 H145          12.6080     4.7988   -14.7596 H       
 146 H146          10.6501     0.0912   -11.6604 H       
 147 H147           9.8451    -1.3545   -11.0046 H       
 148 H148           9.4567    -2.1835   -13.3091 H       
 149 H149          10.2617    -0.7377   -13.9649 H       
 150 H150          12.3479    -1.3612   -12.7785 H       
 151 H151          11.5429    -2.8070   -12.1228 H       
 152 H152          11.2877    -2.8448   -14.9353 H       
 153 H153          14.7872    -3.9762   -13.3669 H       
 154 H154          12.8151    -4.1658   -16.2041 H       
 155 H155          -9.7730    -3.5145     2.3788 H       
 156 H156          -9.5281    -2.2643     1.1317 H       
 157 H157          -7.3188    -3.0819     0.6242 H       
 158 H158          -8.3791    -4.5097     0.6778 H       
 159 H159          -5.3934    -5.5535     0.0948 H       
 160 H160          -6.2017    -7.0277     0.6793 H       
 161 H161          -7.1709    -5.6404     0.1275 H       
 162 H162          -3.5991    -5.5684     5.3441 H       
 163 H163          -5.0357    -5.9481     6.3241 H       
 164 H164          -4.4354    -7.1252     5.1315 H       
 165 H165          -5.4990    -3.0426     6.0943 H       
 166 H166          -7.2366    -3.4006     6.2383 H       
 167 H167          -6.0336    -4.6219     6.7174 H       
 168 H168          -9.0176    -0.3639     4.2812 H       
 169 H169          -9.8789    -0.3874     2.7237 H       
 170 H170         -10.2676    -1.5933     3.9739 H       
 171 H171          -6.5365    -1.7931     1.8878 H       
 172 H172          -7.7034    -0.5039     1.5073 H       
 173 H173          -6.8257    -0.4813     3.0557 H       
 174 H174          20.8188    -3.5407   -13.6111 H       
 175 H175          20.7431    -2.8832   -11.9557 H       
 176 H176          18.3498    -3.1498   -11.8676 H       
 177 H177          18.9989    -4.6783   -12.5064 H       
 178 H178          15.7310    -4.9853   -12.5163 H       
 179 H179          16.3544    -6.2555   -13.5963 H       
 180 H180          17.4456    -5.4569   -12.4388 H       
 181 H181          14.7782    -2.3290   -17.2403 H       
 182 H182          16.1842    -2.6864   -18.2716 H       
 183 H183          15.1438    -4.0106   -17.6950 H       
 184 H184          17.3531    -0.3915   -16.8307 H       
 185 H185          18.9405    -1.1531   -17.0916 H       
 186 H186          17.5365    -1.6695   -18.0560 H       
 187 H187          21.1721     0.1781   -14.0139 H       
 188 H188          21.7808    -0.7184   -12.6018 H       
 189 H189          22.0059    -1.3782   -14.2396 H       
 190 H190          18.1068    -1.2955   -12.4780 H       
 191 H191          19.5073    -0.6702   -11.5746 H       
 192 H192          18.8815     0.2267   -12.9790 H       
@<TRIPOS>BOND
   1    1    2 1
   2    1   96 1
   3    1   97 1
   4    2    3 1
   5    2    4 1
   6    2   98 1
   7    3    5 am
   8    3    6 2
   9    4    7 1
  10    4   99 1
  11    4  100 1
  12    5   16 1
  13    5  101 1
  14    7    8 2
  15    7   11 1
  16    8    9 1
  17    8  102 1
  18    9   10 1
  19    9  103 1
  20   10   11 ar
  21   10   12 ar
  22   11   15 ar
  23   12   13 ar
  24   12  104 1
  25   13   14 ar
  26   13  105 1
  27   14   15 ar
  28   14  106 1
  29   15  107 1
  30   16   17 1
  31   16   20 1
  32   16  108 1
  33   17   18 am
  34   17   19 2
  35   18   27 1
  36   18  109 1
  37   20   21 1
  38   20  110 1
  39   20  111 1
  40   21   22 1
  41   21  112 1
  42   21  113 1
  43   22   23 1
  44   22  114 1
  45   22  115 1
  46   23   24 1
  47   23  116 1
  48   24   25 1
  49   24   26 2
  50   25   60 am
  51   25  117 1
  52   26  118 1
  53   27   28 1
  54   27  119 1
  55   27  120 1
  56   28   29 1
  57   28  121 1
  58   28  122 1
  59   29   30 1
  60   29  123 1
  61   29  124 1
  62   30   31 1
  63   30  125 1
  64   31   32 1
  65   31  126 1
  66   31  127 1
  67   32   33 1
  68   32  128 1
  69   32  129 1
  70   33   34 1
  71   33  130 1
  72   33  131 1
  73   34   35 am
  74   34  132 1
  75   35   36 1
  76   35   37 2
  77   36   38 1
  78   36   53 1
  79   36  133 1
  80   38   39 am
  81   38  134 1
  82   39   40 1
  83   39   41 2
  84   40   42 1
  85   40   43 1
  86   40  135 1
  87   42  136 1
  88   42  137 1
  89   43   44 1
  90   43  138 1
  91   43  139 1
  92   44   45 2
  93   44   48 1
  94   45   46 1
  95   45  140 1
  96   46   47 1
  97   46  141 1
  98   47   48 ar
  99   47   49 ar
 100   48   52 ar
 101   49   50 ar
 102   49  142 1
 103   50   51 ar
 104   50  143 1
 105   51   52 ar
 106   51  144 1
 107   52  145 1
 108   53   54 1
 109   53  146 1
 110   53  147 1
 111   54   55 1
 112   54  148 1
 113   54  149 1
 114   55   56 1
 115   55  150 1
 116   55  151 1
 117   56   57 1
 118   56  152 1
 119   57   58 2
 120   57   59 1
 121   58  153 1
 122   59   78 am
 123   59  154 1
 124   60   61 2
 125   60   62 2
 126   60   63 1
 127   63   64 ar
 128   63   68 ar
 129   64   65 ar
 130   64   74 1
 131   65   66 ar
 132   65   75 1
 133   66   67 ar
 134   66   69 1
 135   67   68 ar
 136   67   72 1
 137   68   73 1
 138   69   70 1
 139   70   71 1
 140   70   76 1
 141   70   77 1
 142   71   72 1
 143   71  155 1
 144   71  156 1
 145   72  157 1
 146   72  158 1
 147   73  159 1
 148   73  160 1
 149   73  161 1
 150   74  162 1
 151   74  163 1
 152   74  164 1
 153   75  165 1
 154   75  166 1
 155   75  167 1
 156   76  168 1
 157   76  169 1
 158   76  170 1
 159   77  171 1
 160   77  172 1
 161   77  173 1
 162   78   79 2
 163   78   80 2
 164   78   81 1
 165   81   82 ar
 166   81   86 ar
 167   82   83 ar
 168   82   92 1
 169   83   84 ar
 170   83   93 1
 171   84   85 ar
 172   84   87 1
 173   85   86 ar
 174   85   90 1
 175   86   91 1
 176   87   88 1
 177   88   89 1
 178   88   94 1
 179   88   95 1
 180   89   90 1
 181   89  174 1
 182   89  175 1
 183   90  176 1
 184   90  177 1
 185   91  178 1
 186   91  179 1
 187   91  180 1
 188   92  181 1
 189   92  182 1
 190   92  183 1
 191   93  184 1
 192   93  185 1
 193   93  186 1
 194   94  187 1
 195   94  188 1
 196   94  189 1
 197   95  190 1
 198   95  191 1
 199   95  192 1

#	End of record

