#	Name: ASD03331456
#	Creating user name:	WinNT
#	Creation time:	15. 06. 2019 20:39

#	Modifying user name:	WinNT
#	Modification time:	15. 06. 2019 20:39

#	Program:	/corina/corina34_cracker 3.40 0067  02.08.2006

@<TRIPOS>MOLECULE
ASD03331456
  44   47    0    0    0
SMALL
NO_CHARGES


@<TRIPOS>ATOM
   1 C1            -0.0180     1.4748     0.0102 C.ar    
   2 C2             0.0021    -0.0041     0.0020 C.2     
   3 N3            -1.0174    -0.8123     0.3838 N.pl3   
   4 C4            -0.5945    -2.1071     0.2270 C.2     
   5 C5             0.6705    -2.0587    -0.2483 C.2     
   6 N6             1.0107    -0.7576    -0.3824 N.2     
   7 C7             1.5254    -3.2200    -0.5693 C.2     
   8 N8             1.1983    -4.4858    -0.4467 N.2     
   9 C9            -0.9798     2.1575     0.7554 C.ar    
  10 C10           -2.3509    -0.4611     0.8798 C.3     
  11 C11           -3.2409    -1.7069     0.7722 C.3     
  12 O12           -2.5663    -2.8365     1.3326 O.3     
  13 C13           -1.4538    -3.3014     0.5534 C.3     
  14 C14           -0.9935     3.5388     0.7598 C.ar    
  15 C15           -0.0530     4.2458     0.0240 C.ar    
  16 C16            0.9031     3.5707    -0.7174 C.ar    
  17 C17            0.9287     2.1917    -0.7230 C.ar    
  18 F18           -0.0699     5.5967     0.0304 F       
  19 F19           -1.9239     4.2021     1.4806 F       
  20 O20            2.7849    -3.1780    -1.0483 O.3     
  21 C21            3.1775    -4.4566    -1.1931 C.2     
  22 N22            2.1887    -5.2180    -0.8185 N.2     
  23 C23            4.5172    -4.9238    -1.7009 C.3     
  24 C24            4.3185    -5.7716    -2.9589 C.3     
  25 C25            5.3871    -3.7105    -2.0358 C.3     
  26 C26            5.2064    -5.7635    -0.6235 C.3     
  27 H27           -1.7122     1.6073     1.3274 H       
  28 H28           -2.2851    -0.1442     1.9206 H       
  29 H29           -2.7688     0.3435     0.2748 H       
  30 H30           -4.1711    -1.5353     1.3139 H       
  31 H31           -3.4648    -1.9025    -0.2765 H       
  32 H32           -1.8134    -3.7608    -0.3672 H       
  33 H33           -0.8769    -4.0258     1.1283 H       
  34 H34            1.6325     4.1255    -1.2889 H       
  35 H35            1.6749     1.6672    -1.3013 H       
  36 H36            3.8275    -5.1734    -3.7264 H       
  37 H37            5.2875    -6.1096    -3.3261 H       
  38 H38            3.6988    -6.6360    -2.7203 H       
  39 H39            5.5287    -3.1064    -1.1396 H       
  40 H40            6.3561    -4.0484    -2.4031 H       
  41 H41            4.8961    -3.1122    -2.8034 H       
  42 H42            4.5867    -6.6279    -0.3849 H       
  43 H43            6.1754    -6.1015    -0.9908 H       
  44 H44            5.3480    -5.1595     0.2727 H       
@<TRIPOS>BOND
   1    1    2 1
   2    1    9 ar
   3    1   17 ar
   4    2    3 1
   5    2    6 2
   6    3    4 1
   7    3   10 1
   8    4    5 2
   9    4   13 1
  10    5    6 1
  11    5    7 1
  12    7    8 2
  13    7   20 1
  14    8   22 1
  15    9   14 ar
  16    9   27 1
  17   10   11 1
  18   10   28 1
  19   10   29 1
  20   11   12 1
  21   11   30 1
  22   11   31 1
  23   12   13 1
  24   13   32 1
  25   13   33 1
  26   14   15 ar
  27   14   19 1
  28   15   16 ar
  29   15   18 1
  30   16   17 ar
  31   16   34 1
  32   17   35 1
  33   20   21 1
  34   21   22 2
  35   21   23 1
  36   23   24 1
  37   23   25 1
  38   23   26 1
  39   24   36 1
  40   24   37 1
  41   24   38 1
  42   25   39 1
  43   25   40 1
  44   25   41 1
  45   26   42 1
  46   26   43 1
  47   26   44 1

#	End of record

