#	Name: ASD01140002
#	Creating user name:	WinNT
#	Creation time:	15. 06. 2019 18:59

#	Modifying user name:	WinNT
#	Modification time:	15. 06. 2019 18:59

#	Program:	/corina/corina34_cracker 3.40 0067  02.08.2006

@<TRIPOS>MOLECULE
ASD01140002
  35   37    0    0    0
SMALL
NO_CHARGES


@<TRIPOS>ATOM
   1 C1             0.0960     1.5468     0.2427 C.ar    
   2 C2             0.0510     0.1627     0.2402 C.ar    
   3 C3             1.2158    -0.5640     0.1484 C.ar    
   4 C4             2.4558     0.0857     0.0566 C.ar    
   5 C5             2.4983     1.4786     0.0606 C.ar    
   6 C6             1.3062     2.1992     0.1538 C.ar    
   7 C7             3.6602    -0.7539    -0.0423 C.2     
   8 N8             4.6668    -0.5094    -0.8050 N.2     
   9 C9             4.7127     0.6699    -1.6685 C.3     
  10 C10            4.7078     1.9040    -0.8083 C.2     
  11 N11            3.6763     2.2047    -0.0217 N.am    
  12 C12            3.7174    -1.9712     0.7983 C.ar    
  13 C13            3.7954     3.3964     0.8220 C.3     
  14 C14            3.7286    -3.2331     0.2042 C.ar    
  15 C15            3.7825    -4.3638     0.9927 C.ar    
  16 C16            3.8255    -4.2497     2.3711 C.ar    
  17 C17            3.8148    -3.0029     2.9688 C.ar    
  18 C18            3.7663    -1.8611     2.1906 C.ar    
  19 F19            3.7559    -0.6430     2.7747 F       
  20 O20            5.6682     2.6443    -0.8320 O.2     
  21 N21           -1.2507    -0.5353     0.3370 N.pl3   
  22 O22           -2.2819     0.1077     0.4187 O.2     
  23 O23           -1.2906    -1.7526     0.3349 O.2     
  24 H24           -0.8196     2.1157     0.3099 H       
  25 H25            1.1751    -1.6432     0.1473 H       
  26 H26            1.3329     3.2789     0.1561 H       
  27 H27            5.6219     0.6473    -2.2693 H       
  28 H28            3.8409     0.6774    -2.3227 H       
  29 H29            4.7655     3.8646     0.6547 H       
  30 H30            3.0034     4.1012     0.5692 H       
  31 H31            3.7062     3.1100     1.8699 H       
  32 H32            3.6948    -3.3248    -0.8714 H       
  33 H33            3.7909    -5.3409     0.5328 H       
  34 H34            3.8673    -5.1387     2.9829 H       
  35 H35            3.8485    -2.9207     4.0451 H       
@<TRIPOS>BOND
   1    1    2 ar
   2    1    6 ar
   3    1   24 1
   4    2    3 ar
   5    2   21 1
   6    3    4 ar
   7    3   25 1
   8    4    5 ar
   9    4    7 1
  10    5    6 ar
  11    5   11 1
  12    6   26 1
  13    7    8 2
  14    7   12 1
  15    8    9 1
  16    9   10 1
  17    9   27 1
  18    9   28 1
  19   10   11 am
  20   10   20 2
  21   11   13 1
  22   12   14 ar
  23   12   18 ar
  24   13   29 1
  25   13   30 1
  26   13   31 1
  27   14   15 ar
  28   14   32 1
  29   15   16 ar
  30   15   33 1
  31   16   17 ar
  32   16   34 1
  33   17   18 ar
  34   17   35 1
  35   18   19 1
  36   21   22 2
  37   21   23 2

#	End of record

