#	Name: ASD01811627
#	Creating user name:	WinNT
#	Creation time:	15. 06. 2019 19:27

#	Modifying user name:	WinNT
#	Modification time:	15. 06. 2019 19:27

#	Program:	/corina/corina34_cracker 3.40 0067  02.08.2006

@<TRIPOS>MOLECULE
ASD01811627
  61   65    0    0    0
SMALL
NO_CHARGES


@<TRIPOS>ATOM
   1 C1            -0.0167     1.3788     0.0096 C.ar    
   2 C2             0.0021    -0.0041     0.0020 C.ar    
   3 C3             1.2020    -0.6841    -0.0123 C.ar    
   4 C4             2.4053     0.0177    -0.0199 C.ar    
   5 C5             2.3742     1.4091    -0.0130 C.ar    
   6 C6             1.1739     2.0837     0.0020 C.ar    
   7 N7             3.7260    -0.4360    -0.0340 N.am    
   8 C8             4.6117     0.5788    -0.0379 C.2     
   9 C9             3.8098     1.8519    -0.0253 C.3     
  10 C10            4.1225     2.7251    -1.2431 C.3     
  11 N11            4.5803     4.0343    -0.7220 N.3     
  12 C12            5.1222     3.7643     0.6353 C.3     
  13 C13            4.1427     2.7062     1.2080 C.3     
  14 C14            5.6093     4.6171    -1.5934 C.3     
  15 C15            5.8767     6.0630    -1.1704 C.3     
  16 C16            7.0341     6.6299    -1.9950 C.3     
  17 C17            4.6211     6.9044    -1.4081 C.3     
  18 O18            5.8208     0.4847    -0.0490 O.2     
  19 C19            4.1043    -1.8513    -0.0430 C.3     
  20 C20            4.2213    -2.3309    -1.4668 C.ar    
  21 C21            5.3664    -2.0549    -2.1966 C.ar    
  22 C22            5.4776    -2.4936    -3.5028 C.ar    
  23 C23            4.4363    -3.2135    -4.0836 C.ar    
  24 C24            3.2879    -3.4876    -3.3445 C.ar    
  25 C25            3.1881    -3.0498    -2.0389 C.ar    
  26 F26            6.3749    -1.3561    -1.6312 F       
  27 C27            4.5497    -3.6869    -5.4863 C.2     
  28 C28            5.6459    -3.4838    -6.3471 C.2     
  29 N29            5.3717    -4.0480    -7.4934 N.2     
  30 N30            4.1004    -4.6288    -7.4106 N.pl3   
  31 C31            3.6137    -4.4028    -6.1738 C.2     
  32 C32            3.4190    -5.3606    -8.4813 C.3     
  33 H33           -0.9585     1.9073     0.0170 H       
  34 H34           -0.9273    -0.5542     0.0077 H       
  35 H35            1.2087    -1.7641    -0.0174 H       
  36 H36            1.1617     3.1636     0.0072 H       
  37 H37            4.9102     2.2650    -1.8397 H       
  38 H38            3.2251     2.8573    -1.8475 H       
  39 H39            6.1320     3.3587     0.5721 H       
  40 H40            5.1078     4.6697     1.2420 H       
  41 H41            3.2450     3.1834     1.6013 H       
  42 H42            4.6294     2.1042     1.9753 H       
  43 H43            6.5286     4.0377    -1.5079 H       
  44 H44            5.2632     4.5990    -2.6268 H       
  45 H45            6.1371     6.0898    -0.1123 H       
  46 H46            6.7737     6.6031    -3.0531 H       
  47 H47            7.2246     7.6599    -1.6937 H       
  48 H48            7.9286     6.0305    -1.8257 H       
  49 H49            4.3607     6.8776    -2.4662 H       
  50 H50            3.7965     6.5005    -0.8207 H       
  51 H51            4.8115     7.9344    -1.1068 H       
  52 H52            5.0624    -1.9745     0.4618 H       
  53 H53            3.3429    -2.4341     0.4753 H       
  54 H54            6.3699    -2.2782    -4.0718 H       
  55 H55            2.4779    -4.0451    -3.7910 H       
  56 H56            2.2978    -3.2626    -1.4658 H       
  57 H57            6.5544    -2.9536    -6.1025 H       
  58 H58            2.6538    -4.7245    -5.7975 H       
  59 H59            3.6717    -6.4188    -8.4160 H       
  60 H60            2.3411    -5.2373    -8.3768 H       
  61 H61            3.7373    -4.9700    -9.4479 H       
@<TRIPOS>BOND
   1    1    2 ar
   2    1    6 ar
   3    1   33 1
   4    2    3 ar
   5    2   34 1
   6    3    4 ar
   7    3   35 1
   8    4    5 ar
   9    4    7 1
  10    5    6 ar
  11    5    9 1
  12    6   36 1
  13    7    8 am
  14    7   19 1
  15    8    9 1
  16    8   18 2
  17    9   10 1
  18    9   13 1
  19   10   11 1
  20   10   37 1
  21   10   38 1
  22   11   12 1
  23   11   14 1
  24   12   13 1
  25   12   39 1
  26   12   40 1
  27   13   41 1
  28   13   42 1
  29   14   15 1
  30   14   43 1
  31   14   44 1
  32   15   16 1
  33   15   17 1
  34   15   45 1
  35   16   46 1
  36   16   47 1
  37   16   48 1
  38   17   49 1
  39   17   50 1
  40   17   51 1
  41   19   20 1
  42   19   52 1
  43   19   53 1
  44   20   21 ar
  45   20   25 ar
  46   21   22 ar
  47   21   26 1
  48   22   23 ar
  49   22   54 1
  50   23   24 ar
  51   23   27 1
  52   24   25 ar
  53   24   55 1
  54   25   56 1
  55   27   28 1
  56   27   31 2
  57   28   29 2
  58   28   57 1
  59   29   30 1
  60   30   31 1
  61   30   32 1
  62   31   58 1
  63   32   59 1
  64   32   60 1
  65   32   61 1

#	End of record

