#	Name: ASD05430156
#	Creating user name:	WinNT
#	Creation time:	15. 06. 2019 20:59

#	Modifying user name:	WinNT
#	Modification time:	15. 06. 2019 20:59

#	Program:	/corina/corina34_cracker 3.40 0067  02.08.2006

@<TRIPOS>MOLECULE
ASD05430156
  60   65    0    0    0
SMALL
NO_CHARGES


@<TRIPOS>ATOM
   1 C1            -0.0102     1.3701    -0.1556 C.ar    
   2 C2             0.0204    -0.0143    -0.3187 C.ar    
   3 C3             1.2360    -0.6827    -0.3839 C.ar    
   4 C4             2.4181     0.0191    -0.2873 C.ar    
   5 C5             2.3953     1.4081    -0.1236 C.ar    
   6 C6             1.1713     2.0809    -0.0585 C.ar    
   7 O7             4.8704     0.1436     0.2389 O.3     
   8 C8             4.8303     1.4988     0.0683 C.2     
   9 C9             3.6564     2.1594    -0.0198 C.2     
  10 C10            6.0850    -0.4214     0.7238 C.3     
  11 C11            6.9282     0.5289     1.5740 C.3     
  12 N12            7.1410     1.7673     0.8227 N.pl3   
  13 C13            6.1211     2.2139    -0.0157 C.2     
  14 N14           -1.1794    -0.7337    -0.4167 N.pl3   
  15 C15           -1.5006    -1.6552    -1.3792 C.2     
  16 C16           -2.7402    -2.0992    -1.0961 C.2     
  17 N17           -3.1684    -1.4694     0.0079 N.2     
  18 C18           -2.2401    -0.6532     0.4276 C.2     
  19 C19           -3.5128    -3.1256    -1.8839 C.3     
  20 C20            8.3680     2.5528     0.9376 C.3     
  21 C21            8.6926     3.1470    -0.4374 C.3     
  22 O22            7.5609     3.8448    -0.9475 O.3     
  23 N23            6.3161     3.1939    -0.8340 N.2     
  24 C24            8.1677     3.6637     1.9360 C.ar    
  25 C25            9.1810     3.9913     2.8170 C.ar    
  26 C26            6.9730     4.3579     1.9662 C.ar    
  27 C27            6.7881     5.3792     2.8829 C.ar    
  28 C28            7.8001     5.7044     3.7695 C.ar    
  29 C29            5.8987    -1.8045     1.3690 C.3     
  30 O30            6.1696    -2.3271     0.0522 O.3     
  31 C31            6.8964    -1.1507    -0.3583 C.3     
  32 C32           -1.1586     3.4399     0.0705 C.3     
  33 O33           -1.2020     2.0215    -0.0978 O.3     
  34 F34            5.6204     6.0582     2.9117 F       
  35 C35            8.9981     5.0119     3.7348 C.ar    
  36 F36            9.9868     5.3282     4.5995 F       
  37 H37            1.2550    -1.7551    -0.5103 H       
  38 H38            3.3619    -0.5033    -0.3377 H       
  39 H39            1.1491     3.1533     0.0675 H       
  40 H40            3.6428     3.2393    -0.0140 H       
  41 H41            6.4039     0.7507     2.5035 H       
  42 H42            7.8897     0.0658     1.7955 H       
  43 H43           -0.8792    -1.9652    -2.2064 H       
  44 H44           -2.3072    -0.0155     1.2966 H       
  45 H45           -3.2987    -4.1203    -1.4930 H       
  46 H46           -4.5801    -2.9228    -1.7964 H       
  47 H47           -3.2183    -3.0760    -2.9322 H       
  48 H48            9.1862     1.9100     1.2621 H       
  49 H49            9.5311     3.8372    -0.3442 H       
  50 H50            8.9620     2.3442    -1.1238 H       
  51 H51           10.1157     3.4509     2.7897 H       
  52 H52            6.1835     4.1040     1.2744 H       
  53 H53            7.6568     6.5010     4.4846 H       
  54 H54            6.6606    -2.0530     2.1078 H       
  55 H55            4.8842    -1.9950     1.7193 H       
  56 H56            6.6709    -0.8247    -1.3736 H       
  57 H57            7.9655    -1.1981    -0.1512 H       
  58 H58           -2.1746     3.8335     0.1006 H       
  59 H59           -0.6483     3.6797     1.0033 H       
  60 H60           -0.6198     3.8885    -0.7642 H       
@<TRIPOS>BOND
   1    1    2 ar
   2    1    6 ar
   3    1   33 1
   4    2    3 ar
   5    2   14 1
   6    3    4 ar
   7    3   37 1
   8    4    5 ar
   9    4   38 1
  10    5    6 ar
  11    5    9 1
  12    6   39 1
  13    7    8 1
  14    7   10 1
  15    8    9 2
  16    8   13 1
  17    9   40 1
  18   10   11 1
  19   10   29 1
  20   10   31 1
  21   11   12 1
  22   11   41 1
  23   11   42 1
  24   12   13 1
  25   12   20 1
  26   13   23 2
  27   14   15 1
  28   14   18 1
  29   15   16 2
  30   15   43 1
  31   16   17 1
  32   16   19 1
  33   17   18 2
  34   18   44 1
  35   19   45 1
  36   19   46 1
  37   19   47 1
  38   20   21 1
  39   20   24 1
  40   20   48 1
  41   21   22 1
  42   21   49 1
  43   21   50 1
  44   22   23 1
  45   24   25 ar
  46   24   26 ar
  47   25   35 ar
  48   25   51 1
  49   26   27 ar
  50   26   52 1
  51   27   28 ar
  52   27   34 1
  53   28   35 ar
  54   28   53 1
  55   29   30 1
  56   29   54 1
  57   29   55 1
  58   30   31 1
  59   31   56 1
  60   31   57 1
  61   32   33 1
  62   32   58 1
  63   32   59 1
  64   32   60 1
  65   35   36 1

#	End of record

