#	Name: ASD01900737
#	Creating user name:	WinNT
#	Creation time:	15. 06. 2019 19:52

#	Modifying user name:	WinNT
#	Modification time:	15. 06. 2019 19:52

#	Program:	/corina/corina34_cracker 3.40 0067  02.08.2006

@<TRIPOS>MOLECULE
ASD01900737
  66   71    0    0    0
SMALL
NO_CHARGES


@<TRIPOS>ATOM
   1 C1            -0.3911     2.0197    -0.4962 C.ar    
   2 C2            -0.4363     0.6320    -0.4471 C.ar    
   3 C3            -1.6409    -0.0358    -0.5338 C.ar    
   4 C4            -2.8239     0.6780    -0.6713 C.ar    
   5 C5            -2.7758     2.0775    -0.7245 C.ar    
   6 O6            -4.0091     0.0337    -0.7455 O.3     
   7 C7            -5.1248     0.6522    -1.1702 C.2     
   8 C8            -5.2269     2.0029    -1.2579 C.2     
   9 C9            -4.0551     2.8147    -0.8855 C.2     
  10 C10           -6.2836    -0.1695    -1.5566 C.2     
  11 N11           -7.4230     0.4246    -1.9889 N.2     
  12 C12           -8.4674    -0.2631    -2.3390 C.2     
  13 N13           -8.4727    -1.6300    -2.2898 N.pl3   
  14 C14           -7.3410    -2.2990    -1.8574 C.2     
  15 C15           -6.2092    -1.5504    -1.4842 C.2     
  16 C16           -1.5630     2.7467    -0.6293 C.ar    
  17 C17           -9.4222    -2.5567    -2.5968 C.2     
  18 C18           -8.9207    -3.7953    -2.3699 C.2     
  19 C19           -7.6103    -3.6540    -1.9036 C.2     
  20 O20            0.8027     2.6645    -0.4081 O.3     
  21 C21            1.9699     1.8523    -0.2664 C.3     
  22 C22            3.2075     2.7480    -0.1838 C.3     
  23 N23            3.1327     3.5762     1.0272 N.3     
  24 C24            3.4442     2.7860     2.2252 C.3     
  25 C25            3.2156     3.6396     3.4746 C.3     
  26 C26            4.1118     4.8794     3.4108 C.3     
  27 C27            3.8011     5.6589     2.1300 C.3     
  28 C28            4.0128     4.7467     0.9195 C.3     
  29 N29            3.8543     5.7320     4.5790 N.3     
  30 C30            4.1916     5.0294     5.8306 C.3     
  31 C31            4.6468     6.9782     4.5105 C.3     
  32 C32            4.9876     7.3119     5.9843 C.3     
  33 C33            5.2241     5.8986     6.5789 C.3     
  34 N34           -4.1370     4.1117    -0.7062 N.2     
  35 O35           -3.0209     4.8301    -0.2128 O.3     
  36 H36            0.4801     0.0704    -0.3405 H       
  37 H37           -1.6634    -1.1149    -0.4949 H       
  38 H38           -6.1417     2.4696    -1.5919 H       
  39 H39           -9.3522     0.2562    -2.6765 H       
  40 H40           -5.3091    -2.0398    -1.1425 H       
  41 H41           -1.5325     3.8256    -0.6675 H       
  42 H42          -10.4152    -2.3396    -2.9620 H       
  43 H43           -9.4424    -4.7285    -2.5227 H       
  44 H44           -6.9362    -4.4525    -1.6308 H       
  45 H45            1.8904     1.2576     0.6436 H       
  46 H46            2.0579     1.1895    -1.1272 H       
  47 H47            4.1030     2.1278    -0.1450 H       
  48 H48            3.2493     3.3920    -1.0623 H       
  49 H49            2.7971     1.9096     2.2606 H       
  50 H50            4.4859     2.4669     2.1890 H       
  51 H51            2.1709     3.9476     3.5187 H       
  52 H52            3.4619     3.0578     4.3629 H       
  53 H53            5.1578     4.5729     3.4059 H       
  54 H54            2.7656     5.9986     2.1530 H       
  55 H55            4.4657     6.5198     2.0576 H       
  56 H56            5.0517     4.4184     0.8895 H       
  57 H57            3.7785     5.2944     0.0067 H       
  58 H58            3.2966     4.9088     6.4410 H       
  59 H59            4.6226     4.0542     5.6039 H       
  60 H60            5.5596     6.8164     3.9371 H       
  61 H61            4.0560     7.7797     4.0669 H       
  62 H62            5.8909     7.9186     6.0484 H       
  63 H63            4.1506     7.8073     6.4761 H       
  64 H64            5.0273     5.8936     7.6510 H       
  65 H65            6.2382     5.5575     6.3705 H       
  66 H66           -3.1766     5.7794    -0.1141 H       
@<TRIPOS>BOND
   1    1    2 ar
   2    1   20 1
   3    1   16 ar
   4    2    3 ar
   5    2   36 1
   6    3    4 ar
   7    3   37 1
   8    4    5 ar
   9    4    6 1
  10    5   16 ar
  11    5    9 1
  12    6    7 1
  13    7    8 2
  14    7   10 1
  15    8    9 1
  16    8   38 1
  17    9   34 2
  18   10   11 1
  19   10   15 2
  20   11   12 2
  21   12   13 1
  22   12   39 1
  23   13   14 1
  24   13   17 1
  25   14   15 1
  26   14   19 2
  27   15   40 1
  28   16   41 1
  29   17   18 2
  30   17   42 1
  31   18   19 1
  32   18   43 1
  33   19   44 1
  34   20   21 1
  35   21   22 1
  36   21   45 1
  37   21   46 1
  38   22   23 1
  39   22   47 1
  40   22   48 1
  41   23   24 1
  42   23   28 1
  43   24   25 1
  44   24   49 1
  45   24   50 1
  46   25   26 1
  47   25   51 1
  48   25   52 1
  49   26   27 1
  50   26   29 1
  51   26   53 1
  52   27   28 1
  53   27   54 1
  54   27   55 1
  55   28   56 1
  56   28   57 1
  57   29   30 1
  58   29   31 1
  59   30   33 1
  60   30   58 1
  61   30   59 1
  62   31   32 1
  63   31   60 1
  64   31   61 1
  65   32   33 1
  66   32   62 1
  67   32   63 1
  68   33   64 1
  69   33   65 1
  70   34   35 1
  71   35   66 1

#	End of record

