#	Name: ASD05303008
#	Creating user name:	WinNT
#	Creation time:	15. 06. 2019 20:58

#	Modifying user name:	WinNT
#	Modification time:	15. 06. 2019 20:58

#	Program:	/corina/corina34_cracker 3.40 0067  02.08.2006

@<TRIPOS>MOLECULE
ASD05303008
  37   40    0    0    0
SMALL
NO_CHARGES


@<TRIPOS>ATOM
   1 C1            -0.0695     1.0681     0.9936 C.ar    
   2 C2             0.0720     0.1242    -0.0061 C.ar    
   3 C3             1.2236    -0.6393    -0.0802 C.ar    
   4 C4             2.2325    -0.4552     0.8492 C.ar    
   5 C5             2.0943     0.4975     1.8567 C.ar    
   6 C6             0.9366     1.2568     1.9236 C.ar    
   7 O7             3.0843     0.6876     2.7656 O.3     
   8 N8             3.4051    -1.2286     0.7926 N.am    
   9 C9             4.0671    -0.2398     2.8936 C.ar    
  10 C10            4.2524    -1.2138     1.9144 C.ar    
  11 C11            5.2585    -2.1548     2.0476 C.ar    
  12 C12            6.0821    -2.1289     3.1593 C.ar    
  13 C13            5.8999    -1.1652     4.1333 C.ar    
  14 C14            4.8964    -0.2223     4.0041 C.ar    
  15 C15            3.7065    -1.9591    -0.2992 C.2     
  16 O16            2.8929    -2.0768    -1.1958 O.2     
  17 C17            5.0225    -2.6159    -0.4068 C.ar    
  18 C18            5.1021    -3.9998    -0.5891 C.ar    
  19 C19            6.3316    -4.6095    -0.6891 C.ar    
  20 C20            7.4956    -3.8500    -0.6088 C.ar    
  21 C21            7.4198    -2.4718    -0.4269 C.ar    
  22 C22            6.1932    -1.8551    -0.3324 C.ar    
  23 N23            8.7366    -4.4693    -0.7102 N.pl3   
  24 H24           -0.9684     1.6644     1.0462 H       
  25 H25           -0.7170    -0.0178    -0.7298 H       
  26 H26            1.3348    -1.3771    -0.8610 H       
  27 H27            0.8203     1.9963     2.7021 H       
  28 H28            5.4002    -2.9075     1.2862 H       
  29 H29            6.8680    -2.8619     3.2658 H       
  30 H30            6.5443    -1.1486     4.9998 H       
  31 H31            4.7593     0.5283     4.7684 H       
  32 H32            4.1995    -4.5896    -0.6511 H       
  33 H33            6.3938    -5.6786    -0.8296 H       
  34 H34            8.3246    -1.8854    -0.3647 H       
  35 H35            6.1351    -0.7859    -0.1915 H       
  36 H36            8.7906    -5.4295    -0.8367 H       
  37 H37            9.5482    -3.9410    -0.6545 H       
@<TRIPOS>BOND
   1    1    2 ar
   2    1    6 ar
   3    1   24 1
   4    2    3 ar
   5    2   25 1
   6    3    4 ar
   7    3   26 1
   8    4    5 ar
   9    4    8 1
  10    5    6 ar
  11    5    7 1
  12    6   27 1
  13    7    9 1
  14    8   10 1
  15    8   15 am
  16    9   10 ar
  17    9   14 ar
  18   10   11 ar
  19   11   12 ar
  20   11   28 1
  21   12   13 ar
  22   12   29 1
  23   13   14 ar
  24   13   30 1
  25   14   31 1
  26   15   16 2
  27   15   17 1
  28   17   18 ar
  29   17   22 ar
  30   18   19 ar
  31   18   32 1
  32   19   20 ar
  33   19   33 1
  34   20   21 ar
  35   20   23 1
  36   21   22 ar
  37   21   34 1
  38   22   35 1
  39   23   36 1
  40   23   37 1

#	End of record

