#	Name: ASD01350047
#	Creating user name:	WinNT
#	Creation time:	15. 06. 2019 19:16

#	Modifying user name:	WinNT
#	Modification time:	15. 06. 2019 19:16

#	Program:	/corina/corina34_cracker 3.40 0067  02.08.2006

@<TRIPOS>MOLECULE
ASD01350047
  57   60    0    0    0
SMALL
NO_CHARGES


@<TRIPOS>ATOM
   1 O1            -0.0007     0.0150    -0.2326 O.2     
   2 C2            -0.0589     1.1861    -0.5241 C.2     
   3 C3             1.1806     1.9116    -0.9803 C.3     
   4 C4             2.3477     0.9581    -0.9849 C.ar    
   5 C5             2.6378     0.2263    -2.1212 C.ar    
   6 C6             3.7083    -0.6483    -2.1254 C.ar    
   7 C7             4.4889    -0.7907    -0.9935 C.ar    
   8 C8             4.1993    -0.0583     0.1425 C.ar    
   9 C9             3.1314     0.8196     0.1453 C.ar    
  10 O10           -1.2289     1.8395    -0.4469 O.3     
  11 C11           -2.3824     1.0761    -0.0055 C.3     
  12 C12           -3.6148     1.9825     0.0193 C.3     
  13 C13           -3.6000     2.8851    -1.2161 C.3     
  14 C14           -4.8735     1.1190    -0.0052 C.3     
  15 C15           -6.0912     1.9705     0.2390 C.ar    
  16 C16           -7.2970     1.6583    -0.3499 C.ar    
  17 C17           -8.4114     2.4422    -0.1034 C.ar    
  18 C18           -8.3241     3.5401     0.7340 C.ar    
  19 C19           -7.1200     3.8670     1.3257 C.ar    
  20 C20           -5.9944     3.0867     1.0746 C.ar    
  21 C21           -4.6896     3.4100     1.6871 C.2     
  22 O22           -4.6220     4.2057     2.6029 O.2     
  23 N23           -3.5764     2.8128     1.2214 N.am    
  24 C24           -2.4088     2.9845     1.8723 C.2     
  25 O25           -1.4245     2.3681     1.5244 O.2     
  26 C26           -2.3267     3.9426     3.0326 C.3     
  27 C27           -0.9227     3.9494     3.5801 C.ar    
  28 C28            0.0101     4.8383     3.0794 C.ar    
  29 C29            1.2980     4.8445     3.5816 C.ar    
  30 C30            1.6529     3.9622     4.5848 C.ar    
  31 C31            0.7198     3.0740     5.0862 C.ar    
  32 C32           -0.5692     3.0707     4.5870 C.ar    
  33 H33            1.0247     2.2998    -1.9869 H       
  34 H34            1.3891     2.7377    -0.3005 H       
  35 H35            2.0280     0.3376    -3.0056 H       
  36 H36            3.9346    -1.2206    -3.0130 H       
  37 H37            5.3248    -1.4746    -0.9966 H       
  38 H38            4.8089    -0.1698     1.0270 H       
  39 H39            2.9051     1.3918     1.0328 H       
  40 H40           -2.5545     0.2477    -0.6927 H       
  41 H41           -2.1984     0.6856     0.9954 H       
  42 H42           -3.6163     2.2699    -2.1157 H       
  43 H43           -4.4764     3.5331    -1.2031 H       
  44 H44           -2.6968     3.4952    -1.2095 H       
  45 H45           -4.9604     0.6345    -0.9778 H       
  46 H46           -4.8039     0.3568     0.7709 H       
  47 H47           -7.3729     0.8023    -1.0040 H       
  48 H48           -9.3546     2.1954    -0.5681 H       
  49 H49           -9.1996     4.1429     0.9252 H       
  50 H50           -7.0515     4.7238     1.9796 H       
  51 H51           -2.5900     4.9451     2.6952 H       
  52 H52           -3.0196     3.6282     3.8131 H       
  53 H53           -0.2672     5.5276     2.2956 H       
  54 H54            2.0270     5.5384     3.1899 H       
  55 H55            2.6593     3.9666     4.9767 H       
  56 H56            0.9972     2.3844     5.8697 H       
  57 H57           -1.2982     2.3768     4.9786 H       
@<TRIPOS>BOND
   1    1    2 2
   2    2    3 1
   3    2   10 1
   4    3    4 1
   5    3   33 1
   6    3   34 1
   7    4    5 ar
   8    4    9 ar
   9    5    6 ar
  10    5   35 1
  11    6    7 ar
  12    6   36 1
  13    7    8 ar
  14    7   37 1
  15    8    9 ar
  16    8   38 1
  17    9   39 1
  18   10   11 1
  19   11   12 1
  20   11   40 1
  21   11   41 1
  22   12   13 1
  23   12   14 1
  24   12   23 1
  25   13   42 1
  26   13   43 1
  27   13   44 1
  28   14   15 1
  29   14   45 1
  30   14   46 1
  31   15   16 ar
  32   15   20 ar
  33   16   17 ar
  34   16   47 1
  35   17   18 ar
  36   17   48 1
  37   18   19 ar
  38   18   49 1
  39   19   20 ar
  40   19   50 1
  41   20   21 1
  42   21   22 2
  43   21   23 am
  44   23   24 am
  45   24   25 2
  46   24   26 1
  47   26   27 1
  48   26   51 1
  49   26   52 1
  50   27   28 ar
  51   27   32 ar
  52   28   29 ar
  53   28   53 1
  54   29   30 ar
  55   29   54 1
  56   30   31 ar
  57   30   55 1
  58   31   32 ar
  59   31   56 1
  60   32   57 1

#	End of record

