#	Name: ASD03080016
#	Creating user name:	WinNT
#	Creation time:	15. 06. 2019 20:26

#	Modifying user name:	WinNT
#	Modification time:	15. 06. 2019 20:26

#	Program:	/corina/corina34_cracker 3.40 0067  02.08.2006

@<TRIPOS>MOLECULE
ASD03080016
  26   28    0    0    0
SMALL
NO_CHARGES


@<TRIPOS>ATOM
   1 O1            -0.0144     1.2085     0.0087 O.3     
   2 N2             0.0021    -0.0041     0.0020 N.2     
   3 C3             1.2348    -0.4424    -0.0121 C.2     
   4 N4             2.0460     0.6359    -0.0141 N.2     
   5 C5             1.2413     1.6828    -0.0008 C.2     
   6 C6             3.0150    -2.1962    -0.0376 C.ar    
   7 C7             1.6622    -1.8640    -0.0234 C.ar    
   8 C8             0.7142    -2.8902    -0.0194 C.ar    
   9 C9             1.1640    -4.1997    -0.0299 C.ar    
  10 C10            2.5242    -4.4475    -0.0438 C.ar    
  11 N11            3.3957    -3.4571    -0.0468 N.ar    
  12 C12            1.6454     3.1031     0.0023 C.ar    
  13 C13            0.6741     4.1092     0.0167 C.ar    
  14 C14            1.0584     5.4363     0.0199 C.ar    
  15 C15            2.4023     5.7708     0.0085 C.ar    
  16 C16            3.3708     4.7759    -0.0063 C.ar    
  17 C17            2.9989     3.4467    -0.0034 C.ar    
  18 F18            4.6799     5.1097    -0.0178 F       
  19 F19            2.7724     7.0701     0.0113 F       
  20 F20           -0.6372     3.7842     0.0269 F       
  21 H21            3.7584    -1.4128    -0.0454 H       
  22 H22           -0.3426    -2.6678    -0.0081 H       
  23 H23            0.4600    -5.0187    -0.0269 H       
  24 H24            2.8787    -5.4676    -0.0520 H       
  25 H25            0.3094     6.2143     0.0311 H       
  26 H26            3.7532     2.6739    -0.0100 H       
@<TRIPOS>BOND
   1    1    2 1
   2    1    5 1
   3    2    3 2
   4    3    4 1
   5    3    7 1
   6    4    5 2
   7    5   12 1
   8    6    7 ar
   9    6   11 ar
  10    6   21 1
  11    7    8 ar
  12    8    9 ar
  13    8   22 1
  14    9   10 ar
  15    9   23 1
  16   10   11 ar
  17   10   24 1
  18   12   13 ar
  19   12   17 ar
  20   13   14 ar
  21   13   20 1
  22   14   15 ar
  23   14   25 1
  24   15   16 ar
  25   15   19 1
  26   16   17 ar
  27   16   18 1
  28   17   26 1

#	End of record

