#	Name: ASD09740430
#	Creating user name:	WinNT
#	Creation time:	15. 06. 2019 21:23

#	Modifying user name:	WinNT
#	Modification time:	15. 06. 2019 21:23

#	Program:	/corina/corina34_cracker 3.40 0067  02.08.2006

@<TRIPOS>MOLECULE
ASD09740430
  77   81    0    0    0
SMALL
NO_CHARGES


@<TRIPOS>ATOM
   1 N1            -0.0453     1.3544     0.5642 N.2     
   2 C2            -0.0596     0.0705     0.8227 C.2     
   3 C3             1.0913     1.9775     0.7031 C.2     
   4 S4             2.3220     0.8304     1.2251 S.3     
   5 C5             1.1217    -0.4601     1.2074 C.2     
   6 C6             1.3125     3.4181     0.4603 C.ar    
   7 C7             0.2553     4.2250     0.0480 C.ar    
   8 C8             2.5824     3.9723     0.6500 C.ar    
   9 C9             2.7942     5.3151     0.4255 C.ar    
  10 C10            1.7490     6.1278     0.0093 C.ar    
  11 C11            0.4699     5.5838    -0.1797 C.ar    
  12 O12            1.9631     7.4494    -0.2099 O.3     
  13 C13            3.3110     7.9135    -0.1100 C.3     
  14 C14            3.4782     9.1794    -0.9528 C.3     
  15 C15            3.6352     8.2276     1.3519 C.3     
  16 C16           -0.6105     6.4199    -0.6090 C.1     
  17 N17           -1.4675     7.0832    -0.9496 N.1     
  18 C18            1.3650    -1.8761     1.5539 C.ar    
  19 C19            2.4350    -2.5648     0.9742 C.ar    
  20 C20            2.6569    -3.8861     1.3021 C.ar    
  21 C21            1.8193    -4.5254     2.2035 C.ar    
  22 C22            0.7597    -3.8493     2.7785 C.ar    
  23 C23            0.5311    -2.5255     2.4639 C.ar    
  24 C24            3.4763    -2.1009    -0.0214 C.3     
  25 C25            4.6111    -3.1436     0.0663 C.3     
  26 C26            3.8638    -4.4048     0.5495 C.3     
  27 N27            4.7191    -5.1921     1.4411 N.am    
  28 S28            4.6309    -6.8456     1.4261 S.o2    
  29 C29            5.2097    -7.3148    -0.2279 C.3     
  30 C30            5.1745    -8.8380    -0.3675 C.3     
  31 O31            5.5646    -7.2554     2.4159 O.2     
  32 O32            3.2446    -7.1239     1.5668 O.2     
  33 N33            5.6431    -9.2179    -1.7069 N.3     
  34 C34            7.0887    -8.9664    -1.8520 C.3     
  35 C35            7.7479   -10.3039    -2.2492 C.3     
  36 C36            6.5693   -11.1064    -2.8606 C.3     
  37 C37            5.3854   -10.6493    -1.9722 C.3     
  38 N38            6.7951   -12.5524    -2.7332 N.3     
  39 C39            5.6284   -13.3108    -3.2039 C.3     
  40 C40            8.0117   -12.9602    -3.4484 C.3     
  41 H41           -0.9566    -0.5245     0.7345 H       
  42 H42           -0.7272     3.8000    -0.0952 H       
  43 H43            3.4000     3.3455     0.9741 H       
  44 H44            3.7773     5.7369     0.5742 H       
  45 H45            3.9889     7.1419    -0.4748 H       
  46 H46            2.8003     9.9510    -0.5880 H       
  47 H47            4.5063     9.5334    -0.8766 H       
  48 H48            3.2473     8.9556    -1.9943 H       
  49 H49            3.5160     7.3257     1.9524 H       
  50 H50            4.6633     8.5816     1.4281 H       
  51 H51            2.9572     8.9992     1.7168 H       
  52 H52            1.9961    -5.5599     2.4581 H       
  53 H53            0.1129    -4.3565     3.4791 H       
  54 H54           -0.2968    -1.9969     2.9130 H       
  55 H55            3.0565    -2.0825    -1.0271 H       
  56 H56            3.8480    -1.1135     0.2524 H       
  57 H57            5.0605    -3.3106    -0.9125 H       
  58 H58            5.3639    -2.8371     0.7925 H       
  59 H59            3.5483    -5.0071    -0.3024 H       
  60 H60            5.3371    -4.7448     2.0402 H       
  61 H61            4.5615    -6.8658    -0.9805 H       
  62 H62            6.2307    -6.9604    -0.3696 H       
  63 H63            5.8226    -9.2869     0.3851 H       
  64 H64            4.1535    -9.1923    -0.2258 H       
  65 H65            7.2595    -8.2231    -2.6307 H       
  66 H66            7.5010    -8.6165    -0.9055 H       
  67 H67            8.5301   -10.1427    -2.9910 H       
  68 H68            8.1465   -10.8128    -1.3716 H       
  69 H69            6.4061   -10.8285    -3.9018 H       
  70 H70            5.3722   -11.2119    -1.0387 H       
  71 H71            4.4421   -10.7728    -2.5041 H       
  72 H72            5.4419   -13.0772    -4.2521 H       
  73 H73            5.8224   -14.3783    -3.0985 H       
  74 H74            4.7553   -13.0399    -2.6104 H       
  75 H75            8.8819   -12.5096    -2.9713 H       
  76 H76            8.1031   -14.0460    -3.4200 H       
  77 H77            7.9526   -12.6276    -4.4848 H       
@<TRIPOS>BOND
   1    1    2 1
   2    1    3 2
   3    2    5 2
   4    2   41 1
   5    3    4 1
   6    3    6 1
   7    4    5 1
   8    5   18 1
   9    6    7 ar
  10    6    8 ar
  11    7   11 ar
  12    7   42 1
  13    8    9 ar
  14    8   43 1
  15    9   10 ar
  16    9   44 1
  17   10   11 ar
  18   10   12 1
  19   11   16 1
  20   12   13 1
  21   13   14 1
  22   13   15 1
  23   13   45 1
  24   14   46 1
  25   14   47 1
  26   14   48 1
  27   15   49 1
  28   15   50 1
  29   15   51 1
  30   16   17 3
  31   18   19 ar
  32   18   23 ar
  33   19   20 ar
  34   19   24 1
  35   20   21 ar
  36   20   26 1
  37   21   22 ar
  38   21   52 1
  39   22   23 ar
  40   22   53 1
  41   23   54 1
  42   24   25 1
  43   24   55 1
  44   24   56 1
  45   25   26 1
  46   25   57 1
  47   25   58 1
  48   26   27 1
  49   26   59 1
  50   27   28 am
  51   27   60 1
  52   28   29 1
  53   28   31 2
  54   28   32 2
  55   29   30 1
  56   29   61 1
  57   29   62 1
  58   30   33 1
  59   30   63 1
  60   30   64 1
  61   33   34 1
  62   33   37 1
  63   34   35 1
  64   34   65 1
  65   34   66 1
  66   35   36 1
  67   35   67 1
  68   35   68 1
  69   36   37 1
  70   36   38 1
  71   36   69 1
  72   37   70 1
  73   37   71 1
  74   38   39 1
  75   38   40 1
  76   39   72 1
  77   39   73 1
  78   39   74 1
  79   40   75 1
  80   40   76 1
  81   40   77 1

#	End of record

