#	Name: ASD02038770
#	Creating user name:	WinNT
#	Creation time:	15. 06. 2019 20:17

#	Modifying user name:	WinNT
#	Modification time:	15. 06. 2019 20:17

#	Program:	/corina/corina34_cracker 3.40 0067  02.08.2006

@<TRIPOS>MOLECULE
ASD02038770
  42   44    0    0    0
SMALL
NO_CHARGES


@<TRIPOS>ATOM
   1 C1             1.3105    -0.8005    -0.4475 C.2     
   2 C2             0.0615    -0.0231    -0.2985 C.2     
   3 N3            -1.1175    -0.6616    -0.1622 N.am    
   4 C4            -1.1747    -2.1224    -0.2575 C.3     
   5 C5            -1.1403    -2.7178     1.1264 C.ar    
   6 C6            -2.3419     0.1051     0.0813 C.3     
   7 O7             0.0982     1.1919    -0.2990 O.2     
   8 N8             2.5491    -0.2916    -0.5784 N.2     
   9 C9             3.3750    -1.3014    -0.6830 C.2     
  10 N10            2.6473    -2.4316    -0.6168 N.pl3   
  11 N11            1.4078    -2.1118    -0.4698 N.2     
  12 C12           -2.3192    -3.0748     1.7544 C.ar    
  13 C13            0.0703    -2.9120     1.7647 C.ar    
  14 C14            0.1032    -3.4585     3.0338 C.ar    
  15 C15           -1.0769    -3.8114     3.6657 C.ar    
  16 C16           -2.2888    -3.6213     3.0232 C.ar    
  17 C17           -2.1724     0.9534     1.3455 C.3     
  18 C18           -3.4253     1.8095     1.5479 C.3     
  19 O19           -3.6362     2.6235     0.3925 O.3     
  20 C20           -3.8481     1.8837    -0.8116 C.3     
  21 C21           -2.6122     1.0307    -1.1089 C.3     
  22 C22           -3.5743    -4.0044     3.7099 C.3     
  23 F23           -1.0459    -4.3456     4.9062 F       
  24 F24           -4.6552    -3.7201     2.8684 F       
  25 F25           -3.5575    -5.3726     4.0013 F       
  26 F26           -3.7037    -3.2762     4.8974 F       
  27 H27           -2.0972    -2.4180    -0.7574 H       
  28 H28           -0.3199    -2.4829    -0.8296 H       
  29 H29           -3.1807    -0.5788     0.2109 H       
  30 H30            4.4467    -1.2390    -0.8014 H       
  31 H31            2.9974    -3.3348    -0.6672 H       
  32 H32           -3.2642    -2.9261     1.2532 H       
  33 H33            0.9909    -2.6370     1.2714 H       
  34 H34            1.0492    -3.6105     3.5322 H       
  35 H35           -2.0346     0.2999     2.2069 H       
  36 H36           -1.3025     1.6010     1.2356 H       
  37 H37           -4.2883     1.1608     1.6981 H       
  38 H38           -3.2928     2.4467     2.4223 H       
  39 H39           -4.7167     1.2361    -0.6923 H       
  40 H40           -4.0201     2.5745    -1.6371 H       
  41 H41           -1.7512     1.6799    -1.2684 H       
  42 H42           -2.7889     0.4324    -2.0028 H       
@<TRIPOS>BOND
   1    1    2 1
   2    1    8 1
   3    1   11 2
   4    2    3 am
   5    2    7 2
   6    3    4 1
   7    3    6 1
   8    4    5 1
   9    4   27 1
  10    4   28 1
  11    5   12 ar
  12    5   13 ar
  13    6   17 1
  14    6   21 1
  15    6   29 1
  16    8    9 2
  17    9   10 1
  18    9   30 1
  19   10   11 1
  20   10   31 1
  21   12   16 ar
  22   12   32 1
  23   13   14 ar
  24   13   33 1
  25   14   15 ar
  26   14   34 1
  27   15   16 ar
  28   15   23 1
  29   16   22 1
  30   17   18 1
  31   17   35 1
  32   17   36 1
  33   18   19 1
  34   18   37 1
  35   18   38 1
  36   19   20 1
  37   20   21 1
  38   20   39 1
  39   20   40 1
  40   21   41 1
  41   21   42 1
  42   22   24 1
  43   22   25 1
  44   22   26 1

#	End of record

