#	Name: ASD03740134
#	Creating user name:	WinNT
#	Creation time:	15. 06. 2019 20:46

#	Modifying user name:	WinNT
#	Modification time:	15. 06. 2019 20:46

#	Program:	/corina/corina34_cracker 3.40 0067  02.08.2006

@<TRIPOS>MOLECULE
ASD03740134
  33   35    0    0    0
SMALL
NO_CHARGES


@<TRIPOS>ATOM
   1 C1             0.0097     1.3380     0.0280 C.ar    
   2 C2            -0.0251    -0.0491    -0.0399 C.ar    
   3 C3            -1.2154    -0.7196    -0.0516 C.ar    
   4 C4            -2.4117    -0.0092     0.0050 C.ar    
   5 C5            -2.3786     1.3972     0.0740 C.ar    
   6 C6            -1.1468     2.0605     0.0902 C.ar    
   7 N7            -3.7328    -0.3735     0.0108 N.pl3   
   8 N8            -4.5241     0.7777     0.0820 N.2     
   9 C9            -3.7689     1.8381     0.1208 C.2     
  10 C10            1.2661    -0.8238    -0.1020 C.3     
  11 C11           -5.5742    -2.1291     2.0319 C.ar    
  12 C12           -4.3825    -2.2902     1.3500 C.ar    
  13 C13           -3.3255    -2.9486     1.9502 C.ar    
  14 C14           -3.4597    -3.4464     3.2326 C.ar    
  15 C15           -4.6520    -3.2855     3.9156 C.ar    
  16 C16           -5.7095    -2.6264     3.3144 C.ar    
  17 C17           -4.2357    -1.7481    -0.0485 C.3     
  18 Cl18          -4.8215    -3.9108     5.5262 Cl      
  19 N19            1.3133     2.0390     0.0392 N.pl3   
  20 O20            2.2602     1.5545     0.6326 O.2     
  21 O21            1.4392     3.1002    -0.5451 O.2     
  22 H22           -1.2285    -1.7982    -0.1051 H       
  23 H23           -1.1113     3.1386     0.1429 H       
  24 H24           -4.1106     2.8611     0.1778 H       
  25 H25            1.6476    -0.9756     0.9077 H       
  26 H26            1.0874    -1.7908    -0.5721 H       
  27 H27            1.9972    -0.2652    -0.6865 H       
  28 H28           -6.3981    -1.6106     1.5641 H       
  29 H29           -2.3949    -3.0745     1.4168 H       
  30 H30           -2.6340    -3.9611     3.7013 H       
  31 H31           -6.6404    -2.5001     3.8472 H       
  32 H32           -5.2055    -1.7591    -0.5460 H       
  33 H33           -3.5340    -2.3680    -0.6066 H       
@<TRIPOS>BOND
   1    1    2 ar
   2    1   19 1
   3    1    6 ar
   4    2    3 ar
   5    2   10 1
   6    3    4 ar
   7    3   22 1
   8    4    5 ar
   9    4    7 1
  10    5    6 ar
  11    5    9 1
  12    6   23 1
  13    7    8 1
  14    7   17 1
  15    8    9 2
  16    9   24 1
  17   10   25 1
  18   10   26 1
  19   10   27 1
  20   11   12 ar
  21   11   16 ar
  22   11   28 1
  23   12   13 ar
  24   12   17 1
  25   13   14 ar
  26   13   29 1
  27   14   15 ar
  28   14   30 1
  29   15   16 ar
  30   15   18 1
  31   16   31 1
  32   17   32 1
  33   17   33 1
  34   19   20 2
  35   19   21 2

#	End of record

