#	Name: ASD03091431
#	Creating user name:	WinNT
#	Creation time:	15. 06. 2019 20:30

#	Modifying user name:	WinNT
#	Modification time:	15. 06. 2019 20:30

#	Program:	/corina/corina34_cracker 3.40 0067  02.08.2006

@<TRIPOS>MOLECULE
ASD03091431
  31   33    0    0    0
SMALL
NO_CHARGES


@<TRIPOS>ATOM
   1 C1             0.0271     1.6698    -0.0387 C.3     
   2 C2             0.0000     0.1411    -0.0977 C.3     
   3 N3             0.6631    -0.4079     1.0920 N.3     
   4 C4            -0.0369    -0.0101     2.3201 C.3     
   5 C5            -0.0115     1.5139     2.4531 C.3     
   6 C6             1.4426     1.9927     2.5219 C.3     
   7 N7             2.1020     1.6842     1.2457 N.am    
   8 C8             1.4819     2.1500    -0.0021 C.3     
   9 C9            -0.6890     2.1407     1.2307 C.3     
  10 C10            3.2546     0.9861     1.2201 C.2     
  11 O11            3.8178     0.7038     2.2604 O.2     
  12 O12            5.1750    -0.2390    -1.5763 O.3     
  13 C13            4.0664     0.2056    -2.1847 C.2     
  14 N14            3.2537     0.6896    -1.2939 N.2     
  15 C15            3.8327     0.5647    -0.0689 C.2     
  16 C16            5.0457    -0.0228    -0.2575 C.2     
  17 H17           -0.4703     2.0781    -0.9184 H       
  18 H18           -1.0338    -0.2029    -0.1285 H       
  19 H19            0.5219    -0.1971    -0.9929 H       
  20 H20            0.7431    -1.4118     1.0305 H       
  21 H21           -1.0705    -0.3536     2.2764 H       
  22 H22            0.4583    -0.4581     3.1816 H       
  23 H23           -0.5369     1.8101     3.3610 H       
  24 H24            1.4654     3.0687     2.6944 H       
  25 H25            1.9584     1.4792     3.3333 H       
  26 H26            2.0235     1.7402    -0.8546 H       
  27 H27            1.5082     3.2391    -0.0389 H       
  28 H28           -0.6314     3.2270     1.2996 H       
  29 H29           -1.7338     1.8322     1.1952 H       
  30 H30            3.8786     0.1680    -3.2476 H       
  31 H31            5.7667    -0.2689     0.5079 H       
@<TRIPOS>BOND
   1    1    2 1
   2    1    8 1
   3    1    9 1
   4    1   17 1
   5    2    3 1
   6    2   18 1
   7    2   19 1
   8    3    4 1
   9    3   20 1
  10    4    5 1
  11    4   21 1
  12    4   22 1
  13    5    6 1
  14    5    9 1
  15    5   23 1
  16    6    7 1
  17    6   24 1
  18    6   25 1
  19    7    8 1
  20    7   10 am
  21    8   26 1
  22    8   27 1
  23    9   28 1
  24    9   29 1
  25   10   11 2
  26   10   15 1
  27   12   13 1
  28   12   16 1
  29   13   14 2
  30   13   30 1
  31   14   15 1
  32   15   16 2
  33   16   31 1

#	End of record

