#	Name: ASD05720176
#	Creating user name:	WinNT
#	Creation time:	15. 06. 2019 21:02

#	Modifying user name:	WinNT
#	Modification time:	15. 06. 2019 21:02

#	Program:	/corina/corina34_cracker 3.40 0067  02.08.2006

@<TRIPOS>MOLECULE
ASD05720176
  49   53    0    0    0
SMALL
NO_CHARGES


@<TRIPOS>ATOM
   1 O1            -0.0161     1.3334     0.0094 O.3     
   2 C2             0.0021    -0.0041     0.0020 C.2     
   3 N3             1.2348    -0.5293    -0.0126 N.am    
   4 C4             2.2183     0.5645    -0.0161 C.3     
   5 C5             1.3508     1.8379    -0.0010 C.3     
   6 O6            -1.0069    -0.6808     0.0084 O.2     
   7 C7             3.0997    -3.5830    -0.0446 C.2     
   8 N8             2.7934    -2.2820    -0.0358 N.2     
   9 C9             1.5348    -1.8852    -0.0220 C.2     
  10 C10            0.4948    -2.8369    -0.0165 C.2     
  11 C11            0.8012    -4.1542    -0.0253 C.2     
  12 N12            2.1144    -4.5345    -0.0395 N.pl3   
  13 N13            2.7294    -5.7914    -0.0515 N.2     
  14 C14            4.0306    -5.6364    -0.0634 C.2     
  15 C15            4.3226    -4.2670    -0.0650 C.2     
  16 C16            5.6706    -3.6561    -0.0831 C.ar    
  17 C17            6.6407    -4.0788     0.8272 C.ar    
  18 C18            7.8966    -3.5089     0.8095 C.ar    
  19 C19            8.1963    -2.5093    -0.1195 C.ar    
  20 C20            7.2260    -2.0883    -1.0281 C.ar    
  21 C21            5.9737    -2.6612    -1.0144 C.ar    
  22 N22           11.2830    -0.6691    -0.6320 N.pl3   
  23 N23            9.9472    -0.9508    -0.9614 N.2     
  24 C24            9.5460    -1.8958    -0.1389 C.2     
  25 N25           10.5598    -2.2120     0.6787 N.2     
  26 C26           11.6046    -1.4818     0.3903 C.2     
  27 F27            8.8363    -3.9168     1.6903 F       
  28 C28            3.0750     0.5128    -1.2827 C.3     
  29 O29            2.2518     0.7574    -2.4249 O.3     
  30 C30            2.9583     0.7311    -3.6668 C.3     
  31 C31            1.9833     1.0038    -4.8139 C.3     
  32 H32            2.8457     0.5180     0.8740 H       
  33 H33            1.5314     2.4339    -0.8956 H       
  34 H34            1.5485     2.4243     0.8964 H       
  35 H35           -0.5367    -2.5172    -0.0049 H       
  36 H36            0.0174    -4.8972    -0.0209 H       
  37 H37            4.7584    -6.4342    -0.0738 H       
  38 H38            6.4080    -4.8513     1.5451 H       
  39 H39            7.4581    -1.3156    -1.7461 H       
  40 H40            5.2243    -2.3375    -1.7215 H       
  41 H41           11.8615    -0.0190    -1.0605 H       
  42 H42           12.5623    -1.5238     0.8878 H       
  43 H43            3.8534     1.2738    -1.2261 H       
  44 H44            3.5349    -0.4715    -1.3703 H       
  45 H45            3.7342     1.4966    -3.6597 H       
  46 H46            3.4158    -0.2487    -3.8039 H       
  47 H47            2.5221     0.9838    -5.7612 H       
  48 H48            1.2074     0.2383    -4.8210 H       
  49 H49            1.5258     1.9836    -4.6768 H       
@<TRIPOS>BOND
   1    1    2 1
   2    1    5 1
   3    2    3 am
   4    2    6 2
   5    3    4 1
   6    3    9 1
   7    4    5 1
   8    4   28 1
   9    4   32 1
  10    5   33 1
  11    5   34 1
  12    7    8 1
  13    7   12 1
  14    7   15 2
  15    8    9 2
  16    9   10 1
  17   10   11 2
  18   10   35 1
  19   11   12 1
  20   11   36 1
  21   12   13 1
  22   13   14 2
  23   14   15 1
  24   14   37 1
  25   15   16 1
  26   16   17 ar
  27   16   21 ar
  28   17   18 ar
  29   17   38 1
  30   18   19 ar
  31   18   27 1
  32   19   20 ar
  33   19   24 1
  34   20   21 ar
  35   20   39 1
  36   21   40 1
  37   22   23 1
  38   22   26 1
  39   22   41 1
  40   23   24 2
  41   24   25 1
  42   25   26 2
  43   26   42 1
  44   28   29 1
  45   28   43 1
  46   28   44 1
  47   29   30 1
  48   30   31 1
  49   30   45 1
  50   30   46 1
  51   31   47 1
  52   31   48 1
  53   31   49 1

#	End of record

