#	Name: ASD01230166
#	Creating user name:	WinNT
#	Creation time:	15. 06. 2019 19:11

#	Modifying user name:	WinNT
#	Modification time:	15. 06. 2019 19:11

#	Program:	/corina/corina34_cracker 3.40 0067  02.08.2006

@<TRIPOS>MOLECULE
ASD01230166
  49   51    0    0    0
SMALL
NO_CHARGES


@<TRIPOS>ATOM
   1 S1             3.5974    -5.0333     1.0949 S.o2    
   2 N2             2.2679    -4.0774     0.8576 N.am    
   3 C3             2.3450    -2.9027     0.2870 C.2     
   4 N4             3.4911    -2.3178    -0.1767 N.pl3   
   5 C5             4.8247    -2.9092    -0.0381 C.3     
   6 C6             4.7546    -4.4328    -0.1760 C.3     
   7 C7             1.0678    -2.1672     0.1435 C.2     
   8 C8             1.0707    -0.9323    -0.4875 C.2     
   9 C9             2.2785    -0.4211    -0.9648 C.2     
  10 C10            3.4294    -1.1057    -0.8071 C.2     
  11 C11           -0.1826    -2.7370     0.6608 C.2     
  12 O12           -0.1936    -3.8639     1.1201 O.2     
  13 N13           -1.3182    -2.0120     0.6271 N.am    
  14 C14            2.2967     0.9132    -1.6650 C.3     
  15 F15            1.9884     0.7341    -3.0178 F       
  16 F16            1.3499     1.7602    -1.0791 F       
  17 F17            3.5687     1.4838    -1.5482 F       
  18 C18           -2.5298    -2.5918     1.0166 C.ar    
  19 C19           -3.5027    -1.8198     1.6384 C.ar    
  20 C20           -4.6980    -2.3955     2.0217 C.ar    
  21 C21           -4.9267    -3.7390     1.7876 C.ar    
  22 C22           -3.9601    -4.5104     1.1687 C.ar    
  23 C23           -2.7650    -3.9396     0.7773 C.ar    
  24 C24           -6.2319    -4.3640     2.2082 C.3     
  25 C25           -6.9437    -4.9340     0.9797 C.3     
  26 C26           -8.3229    -5.4568     1.3862 C.3     
  27 C27           -5.9595    -5.4898     3.2078 C.3     
  28 O28            4.0557    -4.6919     2.3960 O.2     
  29 O29            3.1517    -6.3478     0.7905 O.2     
  30 H30            5.4782    -2.5077    -0.8126 H       
  31 H31            5.2305    -2.6551     0.9411 H       
  32 H32            5.7416    -4.8662    -0.0143 H       
  33 H33            4.3886    -4.6997    -1.1675 H       
  34 H34            0.1532    -0.3753    -0.6078 H       
  35 H35            4.3421    -0.6783    -1.1954 H       
  36 H36           -1.2952    -1.0881     0.3327 H       
  37 H37           -3.3244    -0.7706     1.8221 H       
  38 H38           -5.4550    -1.7957     2.5053 H       
  39 H39           -4.1417    -5.5596     0.9876 H       
  40 H40           -2.0124    -4.5415     0.2900 H       
  41 H41           -6.8628    -3.6080     2.6755 H       
  42 H42           -7.0584    -4.1509     0.2303 H       
  43 H43           -6.3535    -5.7508     0.5642 H       
  44 H44           -8.2082    -6.2400     2.1356 H       
  45 H45           -8.9131    -4.6400     1.8017 H       
  46 H46           -8.8300    -5.8629     0.5110 H       
  47 H47           -5.3285    -6.2459     2.7405 H       
  48 H48           -5.4524    -5.0838     4.0831 H       
  49 H49           -6.9035    -5.9419     3.5121 H       
@<TRIPOS>BOND
   1    1    2 am
   2    1    6 1
   3    1   28 2
   4    1   29 2
   5    2    3 2
   6    3    4 1
   7    3    7 1
   8    4    5 1
   9    4   10 1
  10    5    6 1
  11    5   30 1
  12    5   31 1
  13    6   32 1
  14    6   33 1
  15    7    8 2
  16    7   11 1
  17    8    9 1
  18    8   34 1
  19    9   10 2
  20    9   14 1
  21   10   35 1
  22   11   12 2
  23   11   13 am
  24   13   18 1
  25   13   36 1
  26   14   15 1
  27   14   16 1
  28   14   17 1
  29   18   19 ar
  30   18   23 ar
  31   19   20 ar
  32   19   37 1
  33   20   21 ar
  34   20   38 1
  35   21   22 ar
  36   21   24 1
  37   22   23 ar
  38   22   39 1
  39   23   40 1
  40   24   25 1
  41   24   27 1
  42   24   41 1
  43   25   26 1
  44   25   42 1
  45   25   43 1
  46   26   44 1
  47   26   45 1
  48   26   46 1
  49   27   47 1
  50   27   48 1
  51   27   49 1

#	End of record

