#	Name: ASD03082408
#	Creating user name:	WinNT
#	Creation time:	15. 06. 2019 20:27

#	Modifying user name:	WinNT
#	Modification time:	15. 06. 2019 20:27

#	Program:	/corina/corina34_cracker 3.40 0067  02.08.2006

@<TRIPOS>MOLECULE
ASD03082408
  50   53    0    0    0
SMALL
NO_CHARGES


@<TRIPOS>ATOM
   1 C1             0.8878     3.2554    -0.1896 C.ar    
   2 C2             1.9834     4.0801     0.0296 C.ar    
   3 C3             1.8180     5.4509     0.0712 C.ar    
   4 C4             0.5631     6.0041    -0.1050 C.ar    
   5 C5            -0.5323     5.1871    -0.3238 C.ar    
   6 Cl6           -2.1058     5.8863    -0.5451 Cl      
   7 N7             1.0527     1.8673    -0.2316 N.pl3   
   8 C8             2.3378     1.3151    -0.2238 C.2     
   9 C9             2.6461    -0.0539    -0.1444 C.2     
  10 N10            3.4639     1.9855    -0.2951 N.2     
  11 N11            4.5223     1.0685    -0.2583 N.pl3   
  12 C12            3.9919    -0.1789    -0.1655 C.2     
  13 C13            5.8838     1.3815    -0.3115 C.ar    
  14 C14            6.7771     0.5699    -1.0083 C.ar    
  15 C15            6.3819     2.5163     0.3260 C.ar    
  16 C16            7.7320     2.7904     0.2493 C.ar    
  17 N17            8.5470     1.9945    -0.4167 N.ar    
  18 C18            8.1131     0.9137    -1.0372 C.ar    
  19 C19            8.2828     4.0144     0.9344 C.3     
  20 C20            9.0900     0.0410    -1.7822 C.3     
  21 C21            4.7655    -1.4705    -0.0978 C.3     
  22 C22            4.8486    -2.0790    -1.4739 C.2     
  23 C23           -0.3746     3.8128    -0.3614 C.ar    
  24 N24            5.4985    -3.2455    -1.6568 N.am    
  25 C25            5.5794    -3.8370    -2.9946 C.3     
  26 O26            4.3308    -1.5190    -2.4169 O.2     
  27 C27            6.7512    -4.7781    -3.2813 C.3     
  28 C28            5.3388    -5.3431    -3.1168 C.3     
  29 F29           -1.4434     3.0145    -0.5753 F       
  30 H30            2.9643     3.6499     0.1678 H       
  31 H31            2.6704     6.0917     0.2420 H       
  32 H32            0.4374     7.0763    -0.0716 H       
  33 H33            0.2758     1.2874    -0.2662 H       
  34 H34            1.9337    -0.8629    -0.0777 H       
  35 H35            6.4286    -0.3160    -1.5182 H       
  36 H36            5.7202     3.1722     0.8721 H       
  37 H37            8.5756     3.7599     1.9530 H       
  38 H38            9.1523     4.3773     0.3863 H       
  39 H39            7.5188     4.7915     0.9594 H       
  40 H40            9.4822    -0.7217    -1.1094 H       
  41 H41            8.5832    -0.4389    -2.6194 H       
  42 H42            9.9111     0.6523    -2.1566 H       
  43 H43            5.7710    -1.2727     0.2734 H       
  44 H44            4.2592    -2.1623     0.5754 H       
  45 H45            5.9127    -3.6933    -0.9026 H       
  46 H46            5.2314    -3.2036    -3.8106 H       
  47 H47            7.1738    -4.7641    -4.2859 H       
  48 H48            7.4619    -4.9571    -2.4745 H       
  49 H49            5.1204    -5.8937    -2.2019 H       
  50 H50            4.8323    -5.7007    -4.0133 H       
@<TRIPOS>BOND
   1    1    2 ar
   2    1    7 1
   3    1   23 ar
   4    2    3 ar
   5    2   30 1
   6    3    4 ar
   7    3   31 1
   8    4    5 ar
   9    4   32 1
  10    5   23 ar
  11    5    6 1
  12    7    8 1
  13    7   33 1
  14    8    9 1
  15    8   10 2
  16    9   12 2
  17    9   34 1
  18   10   11 1
  19   11   12 1
  20   11   13 1
  21   12   21 1
  22   13   14 ar
  23   13   15 ar
  24   14   18 ar
  25   14   35 1
  26   15   16 ar
  27   15   36 1
  28   16   17 ar
  29   16   19 1
  30   17   18 ar
  31   18   20 1
  32   19   37 1
  33   19   38 1
  34   19   39 1
  35   20   40 1
  36   20   41 1
  37   20   42 1
  38   21   22 1
  39   21   43 1
  40   21   44 1
  41   22   24 am
  42   22   26 2
  43   23   29 1
  44   24   25 1
  45   24   45 1
  46   25   27 1
  47   25   28 1
  48   25   46 1
  49   27   28 1
  50   27   47 1
  51   27   48 1
  52   28   49 1
  53   28   50 1

#	End of record

