#	Name: ASD01914991
#	Creating user name:	WinNT
#	Creation time:	15. 06. 2019 20:04

#	Modifying user name:	WinNT
#	Modification time:	15. 06. 2019 20:04

#	Program:	/corina/corina34_cracker 3.40 0067  02.08.2006

@<TRIPOS>MOLECULE
ASD01914991
  25   25    0    0    0
SMALL
NO_CHARGES


@<TRIPOS>ATOM
   1 C1            -0.0133     1.4674     0.0530 C.2     
   2 C2             0.0043    -0.0043     0.0229 C.ar    
   3 C3            -1.1877    -0.7341     0.1352 C.ar    
   4 C4            -1.1207    -2.1116     0.1018 C.ar    
   5 C5             0.1169    -2.7356    -0.0411 C.ar    
   6 N6             1.2298    -2.0301    -0.1455 N.ar    
   7 C7             1.2183    -0.7032    -0.1249 C.ar    
   8 O8             1.0318     2.0874     0.0688 O.2     
   9 O9            -1.1886     2.1273     0.0573 O.3     
  10 C10            2.4840     0.0434    -0.2509 C.2     
  11 C11            3.6404    -0.6088    -0.2708 C.2     
  12 O12            0.1806    -4.0886    -0.0732 O.3     
  13 C13            1.4759    -4.6737    -0.2216 C.3     
  14 C14           -1.1300     3.5778     0.0874 C.3     
  15 H15           -2.1362    -0.2295     0.2457 H       
  16 H16           -2.0210    -2.7022     0.1863 H       
  17 H17            2.4702     1.1207    -0.3271 H       
  18 H18            4.5672    -0.0620    -0.3631 H       
  19 H19            3.6542    -1.6860    -0.1947 H       
  20 H20            1.9215    -4.3372    -1.1577 H       
  21 H21            2.1093    -4.3703     0.6120 H       
  22 H22            1.3849    -5.7598    -0.2323 H       
  23 H23           -0.6089     3.9017     0.9883 H       
  24 H24           -0.5949     3.9382    -0.7912 H       
  25 H25           -2.1421     3.9824     0.0878 H       
@<TRIPOS>BOND
   1    1    2 1
   2    1    8 2
   3    1    9 1
   4    2    3 ar
   5    2    7 ar
   6    3    4 ar
   7    3   15 1
   8    4    5 ar
   9    4   16 1
  10    5    6 ar
  11    5   12 1
  12    6    7 ar
  13    7   10 1
  14    9   14 1
  15   10   11 2
  16   10   17 1
  17   11   18 1
  18   11   19 1
  19   12   13 1
  20   13   20 1
  21   13   21 1
  22   13   22 1
  23   14   23 1
  24   14   24 1
  25   14   25 1

#	End of record

