#	Name: ASD09720061
#	Creating user name:	WinNT
#	Creation time:	15. 06. 2019 21:22

#	Modifying user name:	WinNT
#	Modification time:	15. 06. 2019 21:22

#	Program:	/corina/corina34_cracker 3.40 0067  02.08.2006

@<TRIPOS>MOLECULE
ASD09720061
  42   43    0    0    0
SMALL
NO_CHARGES


@<TRIPOS>ATOM
   1 C1             0.0051     1.5026    -0.1898 C.2     
   2 C2             0.0558     0.0645    -0.4925 C.2     
   3 N3             1.1846    -0.4943    -0.7957 N.2     
   4 C4            -1.2054    -0.7593    -0.4500 C.3     
   5 O5             2.3696     0.2798    -0.8356 O.3     
   6 S6            -0.8404    -2.4521    -0.9905 S.3     
   7 C7            -2.4067    -3.2510    -0.8764 C.ar    
   8 C8            -2.5308    -4.5926    -1.2170 C.ar    
   9 C9            -3.7598    -5.2154    -1.1264 C.ar    
  10 C10           -4.8667    -4.5056    -0.6977 C.ar    
  11 C11           -4.7471    -3.1701    -0.3584 C.ar    
  12 C12           -3.5199    -2.5425    -0.4402 C.ar    
  13 C13            1.0855     2.3488    -0.0442 C.2     
  14 C14            0.5913     3.6210     0.2367 C.2     
  15 N15           -0.7165     3.5679     0.2639 N.2     
  16 N16           -1.1203     2.2543    -0.0055 N.pl3   
  17 C17           -2.5018     1.7709    -0.0683 C.3     
  18 C18            1.4248     4.8544     0.4715 C.3     
  19 C19            1.9786     5.3573    -0.8632 C.3     
  20 C20            0.5572     5.9431     1.1062 C.3     
  21 C21            2.5848     4.5151     1.4096 C.3     
  22 H22           -1.5926    -0.7787     0.5687 H       
  23 H23           -1.9497    -0.3187    -1.1133 H       
  24 H24            3.1607    -0.2239    -1.0711 H       
  25 H25           -1.6670    -5.1474    -1.5524 H       
  26 H26           -3.8570    -6.2580    -1.3909 H       
  27 H27           -5.8268    -4.9951    -0.6282 H       
  28 H28           -5.6137    -2.6188    -0.0244 H       
  29 H29           -3.4272    -1.4997    -0.1751 H       
  30 H30            2.1264     2.0743    -0.1316 H       
  31 H31           -2.8363     1.7604    -1.1057 H       
  32 H32           -2.5525     0.7616     0.3400 H       
  33 H33           -3.1446     2.4311     0.5140 H       
  34 H34            1.1522     5.5990    -1.5316 H       
  35 H35            2.5815     6.2494    -0.6934 H       
  36 H36            2.5968     4.5817    -1.3154 H       
  37 H37            0.1626     5.5848     2.0571 H       
  38 H38            1.1600     6.8352     1.2760 H       
  39 H39           -0.2692     6.1848     0.4379 H       
  40 H40            3.2029     3.7396     0.9574 H       
  41 H41            3.1877     5.4072     1.5794 H       
  42 H42            2.1903     4.1569     2.3605 H       
@<TRIPOS>BOND
   1    1    2 1
   2    1   13 2
   3    1   16 1
   4    2    3 2
   5    2    4 1
   6    3    5 1
   7    4    6 1
   8    4   22 1
   9    4   23 1
  10    5   24 1
  11    6    7 1
  12    7    8 ar
  13    7   12 ar
  14    8    9 ar
  15    8   25 1
  16    9   10 ar
  17    9   26 1
  18   10   11 ar
  19   10   27 1
  20   11   12 ar
  21   11   28 1
  22   12   29 1
  23   13   14 1
  24   13   30 1
  25   14   15 2
  26   14   18 1
  27   15   16 1
  28   16   17 1
  29   17   31 1
  30   17   32 1
  31   17   33 1
  32   18   19 1
  33   18   20 1
  34   18   21 1
  35   19   34 1
  36   19   35 1
  37   19   36 1
  38   20   37 1
  39   20   38 1
  40   20   39 1
  41   21   40 1
  42   21   41 1
  43   21   42 1

#	End of record

