#	Name: ASD01813665
#	Creating user name:	WinNT
#	Creation time:	15. 06. 2019 19:30

#	Modifying user name:	WinNT
#	Modification time:	15. 06. 2019 19:30

#	Program:	/corina/corina34_cracker 3.40 0067  02.08.2006

@<TRIPOS>MOLECULE
ASD01813665
  42   45    0    0    0
SMALL
NO_CHARGES


@<TRIPOS>ATOM
   1 C1             0.0987     1.4752     0.3553 C.ar    
   2 C2             0.0803     0.0889     0.3473 C.ar    
   3 C3             1.2503    -0.6314     0.2174 C.ar    
   4 C4             2.4681     0.0345     0.0919 C.ar    
   5 C5             2.4852     1.4397     0.0997 C.ar    
   6 C6             1.2932     2.1563     0.2324 C.ar    
   7 N7             3.6440    -0.6744    -0.0375 N.pl3   
   8 C8             4.8384    -0.0818    -0.1600 C.2     
   9 C9             4.9810     1.2911    -0.1653 C.2     
  10 C10            3.7795     2.1315    -0.0338 C.2     
  11 O11            3.8524     3.3479    -0.0334 O.2     
  12 C12            6.3099     1.9036    -0.3009 C.2     
  13 O13            6.4363     3.2457    -0.3047 O.3     
  14 O14            7.2953     1.2000    -0.4097 O.2     
  15 C15            3.5837    -2.1382    -0.0406 C.3     
  16 C16            3.4403    -2.6321    -1.4571 C.ar    
  17 C17            4.5556    -2.7793    -2.2614 C.ar    
  18 N18            4.4432    -3.2100    -3.5012 N.ar    
  19 C19            3.2648    -3.5182    -4.0263 C.ar    
  20 C20            2.0996    -3.3938    -3.2731 C.ar    
  21 C21            2.1885    -2.9489    -1.9652 C.ar    
  22 F22            1.2151    -1.9819     0.2123 F       
  23 F23            1.3093     3.5071     0.2395 F       
  24 C24            3.1870    -3.9992    -5.4279 C.ar    
  25 C25            4.3396    -4.1327    -6.2054 C.ar    
  26 C26            4.2219    -4.5842    -7.5064 C.ar    
  27 N27            3.0416    -4.8865    -8.0136 N.ar    
  28 C28            1.9298    -4.7741    -7.3121 C.ar    
  29 C29            1.9586    -4.3364    -6.0041 C.ar    
  30 Cl30           5.6448    -4.7551    -8.4862 Cl      
  31 H31           -0.8259     2.0247     0.4537 H       
  32 H32           -0.8602    -0.4331     0.4441 H       
  33 H33            5.7196    -0.6986    -0.2576 H       
  34 H34            7.3305     3.6022    -0.3964 H       
  35 H35            4.4990    -2.5405     0.3935 H       
  36 H36            2.7272    -2.4678     0.5476 H       
  37 H37            5.5318    -2.5375    -1.8679 H       
  38 H38            1.1409    -3.6452    -3.7020 H       
  39 H39            1.3026    -2.8427    -1.3566 H       
  40 H40            5.3083    -3.8866    -5.7962 H       
  41 H41            0.9848    -5.0325    -7.7666 H       
  42 H42            1.0444    -4.2472    -5.4361 H       
@<TRIPOS>BOND
   1    1    2 ar
   2    1    6 ar
   3    1   31 1
   4    2    3 ar
   5    2   32 1
   6    3   22 1
   7    3    4 ar
   8    4    5 ar
   9    4    7 1
  10    5    6 ar
  11    5   10 1
  12    6   23 1
  13    7    8 1
  14    7   15 1
  15    8    9 2
  16    8   33 1
  17    9   10 1
  18    9   12 1
  19   10   11 2
  20   12   13 1
  21   12   14 2
  22   13   34 1
  23   15   16 1
  24   15   35 1
  25   15   36 1
  26   16   17 ar
  27   16   21 ar
  28   17   18 ar
  29   17   37 1
  30   18   19 ar
  31   19   20 ar
  32   19   24 1
  33   20   21 ar
  34   20   38 1
  35   21   39 1
  36   24   25 ar
  37   24   29 ar
  38   25   26 ar
  39   25   40 1
  40   26   27 ar
  41   26   30 1
  42   27   28 ar
  43   28   29 ar
  44   28   41 1
  45   29   42 1

#	End of record

