#	Name: ASD07931960
#	Creating user name:	WinNT
#	Creation time:	15. 06. 2019 21:13

#	Modifying user name:	WinNT
#	Modification time:	15. 06. 2019 21:13

#	Program:	/corina/corina34_cracker 3.40 0067  02.08.2006

@<TRIPOS>MOLECULE
ASD07931960
  48   51    0    0    0
SMALL
NO_CHARGES


@<TRIPOS>ATOM
   1 C1             0.0600     1.5186     0.5826 C.ar    
   2 C2             0.1602     0.2597     1.1742 C.ar    
   3 N3             1.1248     2.0610    -0.0017 N.ar    
   4 N4             1.3110    -0.3880     1.1517 N.ar    
   5 C5             2.3655     0.1555     0.5699 C.ar    
   6 C6             2.2693     1.4077    -0.0195 C.ar    
   7 C7            -1.2296     2.2468     0.5995 C.2     
   8 O8            -2.2026     1.7473     1.1295 O.2     
   9 N9            -1.3241     3.4633     0.0272 N.am    
  10 C10            3.6768    -0.5868     0.5470 C.3     
  11 F11            3.5008    -1.8613     1.0962 F       
  12 F12            4.1224    -0.7056    -0.7738 F       
  13 F13            4.6246     0.1176     1.2973 F       
  14 C14           -2.5660     4.1028    -0.0561 C.ar    
  15 C15           -2.6460     5.4845     0.0609 C.ar    
  16 C16           -3.8724     6.1136    -0.0220 C.ar    
  17 C17           -5.0223     5.3678    -0.2217 C.ar    
  18 C18           -4.9448     3.9903    -0.3387 C.ar    
  19 C19           -3.7194     3.3575    -0.2616 C.ar    
  20 F20           -6.2213     5.9852    -0.3021 F       
  21 S21           -2.6450     9.8035    -1.8099 S.3     
  22 C22           -2.0106     9.0654    -0.3425 C.2     
  23 N23           -2.6544     8.1876     0.3245 N.2     
  24 C24           -3.9599     7.6126     0.1054 C.3     
  25 C25           -4.7399     8.2327    -1.0631 C.3     
  26 C26           -3.8580     8.5350    -2.2598 C.3     
  27 O27           -5.3530     9.3332     0.9691 O.3     
  28 C28           -4.8678     8.0215     1.3015 C.3     
  29 C29           -5.3310     9.5142    -0.4544 C.3     
  30 C30           -6.7537     9.7300    -0.9744 C.3     
  31 F31           -7.5518     8.6384    -0.6158 F       
  32 F32           -7.2825    10.8981    -0.4148 F       
  33 F33           -6.7276     9.8508    -2.3679 F       
  34 N34           -0.7681     9.4512     0.1044 N.pl3   
  35 H35           -0.7016    -0.1846     1.6501 H       
  36 H36            3.1339     1.8479    -0.4938 H       
  37 H37           -0.5313     3.8956    -0.3270 H       
  38 H38           -1.7497     6.0664     0.2171 H       
  39 H39           -5.8427     3.4106    -0.4940 H       
  40 H40           -3.6589     2.2834    -0.3570 H       
  41 H41           -5.5479     7.5646    -1.3614 H       
  42 H42           -4.4740     8.8970    -3.0830 H       
  43 H43           -3.3381     7.6275    -2.5666 H       
  44 H44           -5.6995     7.3241     1.4015 H       
  45 H45           -4.2874     8.0548     2.2235 H       
  46 H46           -4.7056    10.3695    -0.7103 H       
  47 H47           -0.2611    10.1166    -0.3867 H       
  48 H48           -0.3989     9.0577     0.9105 H       
@<TRIPOS>BOND
   1    1    2 ar
   2    1    3 ar
   3    1    7 1
   4    2    4 ar
   5    2   35 1
   6    3    6 ar
   7    4    5 ar
   8    5    6 ar
   9    5   10 1
  10    6   36 1
  11    7    8 2
  12    7    9 am
  13    9   14 1
  14    9   37 1
  15   10   11 1
  16   10   12 1
  17   10   13 1
  18   14   15 ar
  19   14   19 ar
  20   15   16 ar
  21   15   38 1
  22   16   17 ar
  23   16   24 1
  24   17   18 ar
  25   17   20 1
  26   18   19 ar
  27   18   39 1
  28   19   40 1
  29   21   22 1
  30   21   26 1
  31   22   23 2
  32   22   34 1
  33   23   24 1
  34   24   28 1
  35   24   25 1
  36   25   26 1
  37   25   29 1
  38   25   41 1
  39   26   42 1
  40   26   43 1
  41   27   28 1
  42   27   29 1
  43   28   44 1
  44   28   45 1
  45   29   30 1
  46   29   46 1
  47   30   31 1
  48   30   32 1
  49   30   33 1
  50   34   47 1
  51   34   48 1

#	End of record

