#	Name: ASD01870108
#	Creating user name:	WinNT
#	Creation time:	15. 06. 2019 19:38

#	Modifying user name:	WinNT
#	Modification time:	15. 06. 2019 19:38

#	Program:	/corina/corina34_cracker 3.40 0067  02.08.2006

@<TRIPOS>MOLECULE
ASD01870108
  29   30    0    0    0
SMALL
NO_CHARGES


@<TRIPOS>ATOM
   1 C1            -0.0163     1.3735     0.0308 C.ar    
   2 C2             0.0036    -0.0067     0.0546 C.ar    
   3 C3             1.2095    -0.6907     0.0504 C.ar    
   4 C4             2.4015     0.0019     0.0228 C.ar    
   5 C5             2.3947     1.3989    -0.0014 C.ar    
   6 C6             1.1733     2.0859     0.0025 C.ar    
   7 O7             1.1546     3.4423    -0.0214 O.3     
   8 Cl8            1.2189    -2.4265     0.0805 Cl      
   9 C9             3.6660     2.1464    -0.0305 C.2     
  10 O10            3.6561     3.3622    -0.0516 O.2     
  11 N11            4.8386     1.4819    -0.0338 N.am    
  12 C12            6.0418     2.1868    -0.1461 C.ar    
  13 C13            6.1138     3.5105     0.2662 C.ar    
  14 C14            7.1696     1.5617    -0.6656 C.ar    
  15 C15            8.3562     2.2612    -0.7751 C.ar    
  16 C16            8.4220     3.5815    -0.3684 C.ar    
  17 C17            7.3035     4.2039     0.1539 C.ar    
  18 Cl18           7.0874    -0.0957    -1.1757 Cl      
  19 N19            9.6947     4.3280    -0.4870 N.pl3   
  20 O20           10.6823     3.7796    -0.9423 O.2     
  21 O21            9.7543     5.4908    -0.1293 O.2     
  22 H22           -0.9598     1.8992     0.0298 H       
  23 H23           -0.9256    -0.5568     0.0770 H       
  24 H24            3.3389    -0.5345     0.0203 H       
  25 H25            1.1375     3.8199    -0.9115 H       
  26 H26            4.8482     0.5149     0.0418 H       
  27 H27            5.2406     3.9978     0.6740 H       
  28 H28            9.2330     1.7765    -1.1782 H       
  29 H29            7.3585     5.2350     0.4705 H       
@<TRIPOS>BOND
   1    1    2 ar
   2    1    6 ar
   3    1   22 1
   4    2    3 ar
   5    2   23 1
   6    3    4 ar
   7    3    8 1
   8    4    5 ar
   9    4   24 1
  10    5    6 ar
  11    5    9 1
  12    6    7 1
  13    7   25 1
  14    9   10 2
  15    9   11 am
  16   11   12 1
  17   11   26 1
  18   12   13 ar
  19   12   14 ar
  20   13   17 ar
  21   13   27 1
  22   14   15 ar
  23   14   18 1
  24   15   16 ar
  25   15   28 1
  26   16   17 ar
  27   16   19 1
  28   17   29 1
  29   19   20 2
  30   19   21 2

#	End of record

