#	Name: ASD01912218
#	Creating user name:	WinNT
#	Creation time:	15. 06. 2019 19:59

#	Modifying user name:	WinNT
#	Modification time:	15. 06. 2019 19:59

#	Program:	/corina/corina34_cracker 3.40 0067  02.08.2006

@<TRIPOS>MOLECULE
ASD01912218
  48   50    0    0    0
SMALL
NO_CHARGES


@<TRIPOS>ATOM
   1 N1            -0.0463     1.4929     0.5692 N.am    
   2 C2             0.0010     0.1516     1.1654 C.3     
   3 C3             0.4468    -0.8501     0.0926 C.3     
   4 C4             1.6871    -0.3072    -0.5827 C.2     
   5 C5             1.6426     1.0954    -1.1482 C.3     
   6 C6             1.1669     2.0483    -0.0443 C.3     
   7 C7            -1.1914     2.2036     0.5800 C.2     
   8 O8            -2.2160     1.6992     0.9972 O.2     
   9 N9            -1.2007     3.4734     0.1284 N.am    
  10 C10           -2.4088     4.1733     0.0329 C.ar    
  11 C11           -2.4372     5.5451     0.2481 C.ar    
  12 C12           -3.6308     6.2329     0.1527 C.ar    
  13 C13           -4.7972     5.5572    -0.1568 C.ar    
  14 C14           -4.7722     4.1916    -0.3716 C.ar    
  15 C15           -3.5805     3.4987    -0.2828 C.ar    
  16 N16           -3.6621     7.6948     0.3823 N.pl3   
  17 O17           -2.6353     8.2905     0.6553 O.2     
  18 O18           -4.7145     8.3022     0.2983 O.2     
  19 C19            2.7917    -1.0461    -0.6767 C.2     
  20 C20            3.9559    -0.5150    -1.3195 C.1     
  21 C21            4.9103    -0.0795    -1.8465 C.1     
  22 C22            6.0745     0.4516    -2.4893 C.ar    
  23 C23            7.2309    -0.3279    -2.5853 C.ar    
  24 C24            8.3463     0.2000    -3.2091 C.ar    
  25 C25            8.2737     1.4900    -3.7182 C.ar    
  26 C26            7.0980     2.2067    -3.5892 C.ar    
  27 N27            6.0462     1.6811    -2.9957 N.ar    
  28 C28            7.0171     3.6067    -4.1410 C.3     
  29 H29            0.7126     0.1436     1.9910 H       
  30 H30           -0.9890    -0.1209     1.5310 H       
  31 H31            0.6725    -1.8097     0.5577 H       
  32 H32           -0.3466    -0.9764    -0.6440 H       
  33 H33            2.6381     1.3882    -1.4819 H       
  34 H34            0.9485     1.1307    -1.9878 H       
  35 H35            0.9443     3.0245    -0.4752 H       
  36 H36            1.9454     2.1493     0.7119 H       
  37 H37           -0.3700     3.9022    -0.1305 H       
  38 H38           -1.5268     6.0733     0.4901 H       
  39 H39           -5.7295     6.0974    -0.2305 H       
  40 H40           -5.6848     3.6668    -0.6127 H       
  41 H41           -3.5609     2.4327    -0.4551 H       
  42 H42            2.8091    -2.0457    -0.2681 H       
  43 H43            7.2530    -1.3279    -2.1778 H       
  44 H44            9.2542    -0.3780    -3.2981 H       
  45 H45            9.1283     1.9300    -4.2105 H       
  46 H46            6.6711     3.5707    -5.1740 H       
  47 H47            6.3183     4.1927    -3.5440 H       
  48 H48            8.0033     4.0693    -4.1041 H       
@<TRIPOS>BOND
   1    1    2 1
   2    1    6 1
   3    1    7 am
   4    2    3 1
   5    2   29 1
   6    2   30 1
   7    3    4 1
   8    3   31 1
   9    3   32 1
  10    4    5 1
  11    4   19 2
  12    5    6 1
  13    5   33 1
  14    5   34 1
  15    6   35 1
  16    6   36 1
  17    7    8 2
  18    7    9 am
  19    9   10 1
  20    9   37 1
  21   10   11 ar
  22   10   15 ar
  23   11   12 ar
  24   11   38 1
  25   12   13 ar
  26   12   16 1
  27   13   14 ar
  28   13   39 1
  29   14   15 ar
  30   14   40 1
  31   15   41 1
  32   16   17 2
  33   16   18 2
  34   19   20 1
  35   19   42 1
  36   20   21 3
  37   21   22 1
  38   22   23 ar
  39   22   27 ar
  40   23   24 ar
  41   23   43 1
  42   24   25 ar
  43   24   44 1
  44   25   26 ar
  45   25   45 1
  46   26   27 ar
  47   26   28 1
  48   28   46 1
  49   28   47 1
  50   28   48 1

#	End of record

