#	Name: ASD01812477
#	Creating user name:	WinNT
#	Creation time:	15. 06. 2019 19:28

#	Modifying user name:	WinNT
#	Modification time:	15. 06. 2019 19:28

#	Program:	/corina/corina34_cracker 3.40 0067  02.08.2006

@<TRIPOS>MOLECULE
ASD01812477
  53   57    0    0    0
SMALL
NO_CHARGES


@<TRIPOS>ATOM
   1 C1             0.3670     1.5894    -0.2472 C.ar    
   2 C2             0.3107     0.2170    -0.3979 C.ar    
   3 C3             1.4737    -0.5066    -0.5859 C.ar    
   4 C4             2.6931     0.1398    -0.6257 C.ar    
   5 C5             2.7589     1.5216    -0.4760 C.ar    
   6 C6             1.5888     2.2463    -0.2840 C.ar    
   7 N7             4.0114     2.1416    -0.5278 N.3     
   8 C8             3.9961     3.4713     0.0931 C.3     
   9 C9             2.8212     4.2691    -0.4872 C.3     
  10 O10            1.6107     3.5980    -0.1225 O.3     
  11 C11            5.0454     1.2906     0.0760 C.3     
  12 C12            6.4082     1.8104    -0.3031 C.ar    
  13 C13            7.0636     1.2898    -1.4038 C.ar    
  14 C14            6.9982     2.8110     0.4471 C.ar    
  15 C15            8.2469     3.2898     0.1018 C.ar    
  16 C16            8.9098     2.7654    -0.9997 C.ar    
  17 C17            8.3127     1.7642    -1.7538 C.ar    
  18 N18            3.8224     6.5153    -0.2208 N.am    
  19 C19            2.8220     5.6645     0.0820 C.2     
  20 O20            1.9223     6.0219     0.8128 O.2     
  21 N21           10.1772     3.2493    -1.3526 N.pl3   
  22 C22           10.9276     2.8285    -2.3958 C.2     
  23 C23           12.0770     3.5427    -2.3908 C.2     
  24 C24           12.0285     4.4295    -1.3096 C.2     
  25 N25           10.8881     4.2587    -0.6905 N.2     
  26 C26            3.7799     7.8378     0.2379 C.ar    
  27 C27            4.2933     8.8648    -0.5472 C.ar    
  28 C28            4.2493    10.1691    -0.0904 C.ar    
  29 C29            3.6962    10.4518     1.1453 C.ar    
  30 C30            3.1855     9.4325     1.9271 C.ar    
  31 C31            3.2204     8.1274     1.4743 C.ar    
  32 F32            4.8343     8.5883    -1.7539 F       
  33 H33           -0.5432     2.1531    -0.1048 H       
  34 H34           -0.6421    -0.2907    -0.3684 H       
  35 H35            1.4283    -1.5795    -0.7015 H       
  36 H36            3.5991    -0.4292    -0.7732 H       
  37 H37            3.8726     3.3702     1.1714 H       
  38 H38            4.9314     3.9872    -0.1238 H       
  39 H39            2.9052     4.3139    -1.5731 H       
  40 H40            4.9400     1.3048     1.1607 H       
  41 H41            4.9325     0.2689    -0.2867 H       
  42 H42            6.5985     0.5113    -1.9903 H       
  43 H43            6.4820     3.2188     1.3036 H       
  44 H44            8.7071     4.0716     0.6879 H       
  45 H45            8.8244     1.3568    -2.6131 H       
  46 H46            4.5719     6.2116    -0.7565 H       
  47 H47           10.6581     2.0603    -3.1054 H       
  48 H48           12.8887     3.4451    -3.0965 H       
  49 H49           12.7977     5.1364    -1.0358 H       
  50 H50            4.6475    10.9676    -0.6989 H       
  51 H51            3.6635    11.4712     1.5005 H       
  52 H52            2.7546     9.6571     2.8917 H       
  53 H53            2.8170     7.3327     2.0844 H       
@<TRIPOS>BOND
   1    1    2 ar
   2    1    6 ar
   3    1   33 1
   4    2    3 ar
   5    2   34 1
   6    3    4 ar
   7    3   35 1
   8    4    5 ar
   9    4   36 1
  10    5    7 1
  11    5    6 ar
  12    6   10 1
  13    7   11 1
  14    7    8 1
  15    8    9 1
  16    8   37 1
  17    8   38 1
  18    9   10 1
  19    9   19 1
  20    9   39 1
  21   11   12 1
  22   11   40 1
  23   11   41 1
  24   12   14 ar
  25   12   13 ar
  26   13   17 ar
  27   13   42 1
  28   14   15 ar
  29   14   43 1
  30   15   16 ar
  31   15   44 1
  32   16   17 ar
  33   16   21 1
  34   17   45 1
  35   18   19 am
  36   18   26 1
  37   18   46 1
  38   19   20 2
  39   21   22 1
  40   21   25 1
  41   22   23 2
  42   22   47 1
  43   23   24 1
  44   23   48 1
  45   24   25 2
  46   24   49 1
  47   26   27 ar
  48   26   31 ar
  49   27   28 ar
  50   27   32 1
  51   28   29 ar
  52   28   50 1
  53   29   30 ar
  54   29   51 1
  55   30   31 ar
  56   30   52 1
  57   31   53 1

#	End of record

