#	Name: ASD01911534
#	Creating user name:	WinNT
#	Creation time:	15. 06. 2019 19:57

#	Modifying user name:	WinNT
#	Modification time:	15. 06. 2019 19:57

#	Program:	/corina/corina34_cracker 3.40 0067  02.08.2006

@<TRIPOS>MOLECULE
ASD01911534
  20   20    0    0    0
SMALL
NO_CHARGES


@<TRIPOS>ATOM
   1 C1            -0.0177     1.4567     0.0101 C.3     
   2 N2             0.0021    -0.0041     0.0020 N.am    
   3 C3             1.0795    -0.7076    -0.3671 C.2     
   4 C4             2.3719    -0.0500    -0.7644 C.3     
   5 O5             2.1467     1.3351    -1.0377 O.3     
   6 C6             1.4136     1.9977    -0.0007 C.3     
   7 C7             1.3910     3.5037    -0.2698 C.3     
   8 C8             2.0758     1.7242     1.3512 C.3     
   9 O9             1.0109    -1.9184    -0.3811 O.2     
  10 H10           -0.5473     1.8164    -0.8722 H       
  11 H11           -0.5303     1.8068     0.9060 H       
  12 H12           -0.7962    -0.4827     0.2750 H       
  13 H13            3.0923    -0.1466     0.0479 H       
  14 H14            2.7663    -0.5360    -1.6568 H       
  15 H15            0.9121     3.6940    -1.2302 H       
  16 H16            0.8328     4.0056     0.5204 H       
  17 H17            2.4122     3.8843    -0.2913 H       
  18 H18            3.0998     2.0976     1.3364 H       
  19 H19            1.5163     2.2293     2.1386 H       
  20 H20            2.0830     0.6511     1.5418 H       
@<TRIPOS>BOND
   1    1    2 1
   2    1    6 1
   3    1   10 1
   4    1   11 1
   5    2    3 am
   6    2   12 1
   7    3    4 1
   8    3    9 2
   9    4    5 1
  10    4   13 1
  11    4   14 1
  12    5    6 1
  13    6    7 1
  14    6    8 1
  15    7   15 1
  16    7   16 1
  17    7   17 1
  18    8   18 1
  19    8   19 1
  20    8   20 1

#	End of record

