#	Name: ASD01918252
#	Creating user name:	WinNT
#	Creation time:	15. 06. 2019 20:11

#	Modifying user name:	WinNT
#	Modification time:	15. 06. 2019 20:11

#	Program:	/corina/corina34_cracker 3.40 0067  02.08.2006

@<TRIPOS>MOLECULE
ASD01918252
  52   55    0    0    0
SMALL
NO_CHARGES


@<TRIPOS>ATOM
   1 C1            -0.0153     1.4598     0.0124 C.3     
   2 N2            -0.0012    -0.0050     0.0018 N.am    
   3 C3             0.0116    -0.7466     1.2652 C.3     
   4 C4             0.0000    -0.6705    -1.1702 C.2     
   5 O5            -0.1068    -0.0614    -2.2135 O.2     
   6 C6             0.1341    -2.1715    -1.1844 C.3     
   7 C7            -0.9519    -2.7888    -0.3009 C.3     
   8 C8            -0.8158    -4.3127    -0.3152 C.3     
   9 C9             0.5623    -4.7067     0.2201 C.3     
  10 C10            1.6482    -4.0893    -0.6634 C.3     
  11 C11            1.4922    -4.6018    -2.0965 C.3     
  12 C12            0.1141    -4.2078    -2.6318 C.3     
  13 C13           -0.9718    -4.8252    -1.7483 C.3     
  14 C14           -0.0220    -2.6840    -2.6175 C.3     
  15 N15           -0.0354    -4.6986    -4.0041 N.am    
  16 C16            0.0481    -6.0191    -4.2604 C.2     
  17 O17            0.2473    -6.8027    -3.3532 O.2     
  18 C18           -0.1030    -6.5154    -5.6482 C.ar    
  19 C19           -0.0214    -7.8817    -5.9057 C.ar    
  20 C20           -0.1648    -8.3310    -7.2093 C.ar    
  21 C21           -0.3849    -7.3976    -8.2098 C.ar    
  22 C22           -0.4547    -6.0530    -7.8810 C.ar    
  23 C23           -0.6939    -5.0342    -8.9654 C.3     
  24 N24           -0.3205    -5.6546    -6.6350 N.ar    
  25 C25            1.5121    -2.5655    -0.6491 C.3     
  26 H26            1.0088     1.8331     0.0104 H       
  27 H27           -0.5366     1.8246    -0.8727 H       
  28 H28           -0.5286     1.8118     0.9072 H       
  29 H29           -1.0095    -0.8631     1.6284 H       
  30 H30            0.4547    -1.7295     1.1051 H       
  31 H31            0.5991    -0.1989     2.0020 H       
  32 H32           -0.8407    -2.4237     0.7201 H       
  33 H33           -1.9336    -2.5081    -0.6822 H       
  34 H34           -1.5894    -4.7525     0.3142 H       
  35 H35            0.6735    -4.3416     1.2411 H       
  36 H36            0.6593    -5.7923     0.2099 H       
  37 H37            2.6300    -4.3700    -0.2820 H       
  38 H38            2.2658    -4.1620    -2.7260 H       
  39 H39            1.5891    -5.6875    -2.1067 H       
  40 H40           -0.8749    -5.9108    -1.7585 H       
  41 H41           -1.9536    -4.5445    -2.1297 H       
  42 H42           -1.0038    -2.4033    -2.9988 H       
  43 H43            0.7516    -2.2442    -3.2469 H       
  44 H44           -0.1944    -4.0731    -4.7282 H       
  45 H45            0.1515    -8.5812    -5.1012 H       
  46 H46           -0.1060    -9.3844    -7.4400 H       
  47 H47           -0.5005    -7.7149    -9.2356 H       
  48 H48           -1.7657    -4.8758    -9.0852 H       
  49 H49           -0.2160    -4.0935    -8.6919 H       
  50 H50           -0.2730    -5.3963    -9.9034 H       
  51 H51            2.2858    -2.1257    -1.2785 H       
  52 H52            1.6233    -2.2004     0.3719 H       
@<TRIPOS>BOND
   1    1    2 1
   2    1   26 1
   3    1   27 1
   4    1   28 1
   5    2    3 1
   6    2    4 am
   7    3   29 1
   8    3   30 1
   9    3   31 1
  10    4    5 2
  11    4    6 1
  12    6   14 1
  13    6   25 1
  14    6    7 1
  15    7    8 1
  16    7   32 1
  17    7   33 1
  18    8   13 1
  19    8    9 1
  20    8   34 1
  21    9   10 1
  22    9   35 1
  23    9   36 1
  24   10   11 1
  25   10   25 1
  26   10   37 1
  27   11   12 1
  28   11   38 1
  29   11   39 1
  30   12   13 1
  31   12   14 1
  32   12   15 1
  33   13   40 1
  34   13   41 1
  35   14   42 1
  36   14   43 1
  37   15   16 am
  38   15   44 1
  39   16   17 2
  40   16   18 1
  41   18   24 ar
  42   18   19 ar
  43   19   20 ar
  44   19   45 1
  45   20   21 ar
  46   20   46 1
  47   21   22 ar
  48   21   47 1
  49   22   23 1
  50   22   24 ar
  51   23   48 1
  52   23   49 1
  53   23   50 1
  54   25   51 1
  55   25   52 1

#	End of record

