#	Name: ASD03080074
#	Creating user name:	WinNT
#	Creation time:	15. 06. 2019 20:26

#	Modifying user name:	WinNT
#	Modification time:	15. 06. 2019 20:26

#	Program:	/corina/corina34_cracker 3.40 0067  02.08.2006

@<TRIPOS>MOLECULE
ASD03080074
  33   35    0    0    0
SMALL
NO_CHARGES


@<TRIPOS>ATOM
   1 C1            -0.0187     1.5258     0.0104 C.3     
   2 C2             0.0021    -0.0041     0.0020 C.3     
   3 C3             1.3951     2.0474    -0.0003 C.ar    
   4 C4             2.0163     2.3770     1.1869 C.ar    
   5 C5             3.3257     2.8595     1.1752 C.ar    
   6 C6             3.9985     3.0053    -0.0391 C.ar    
   7 C7             3.3660     2.6721    -1.2188 C.ar    
   8 C8             2.0694     2.1893    -1.1998 C.ar    
   9 O9             3.4752     3.1266     3.6766 O.3     
  10 N10            4.2885     3.4960     4.4969 N.2     
  11 C11            5.3990     3.8558     3.9060 C.2     
  12 N12            5.2249     3.6796     2.5795 N.2     
  13 C13            3.9972     3.2151     2.4434 C.2     
  14 C14            7.7442     4.7153     3.8212 C.ar    
  15 C15            6.6241     4.3649     4.5719 C.ar    
  16 C16            6.6724     4.5008     5.9616 C.ar    
  17 C17            7.8381     4.9805     6.5344 C.ar    
  18 C18            8.9071     5.3067     5.7204 C.ar    
  19 N19            8.8316     5.1679     4.4107 N.ar    
  20 O20           -0.7098     1.9991    -1.1473 O.3     
  21 H21           -0.5289     1.8773     0.9072 H       
  22 H22            0.5293    -0.3651     0.8851 H       
  23 H23           -1.0205    -0.3814     0.0098 H       
  24 H24            0.5123    -0.3556    -0.8948 H       
  25 H25            1.4901     2.2623     2.1231 H       
  26 H26            5.0118     3.3785    -0.0549 H       
  27 H27            3.8854     2.7847    -2.1590 H       
  28 H28            1.5801     1.9259    -2.1259 H       
  29 H29            7.7220     4.6109     2.7465 H       
  30 H30            5.8219     4.2387     6.5734 H       
  31 H31            7.9114     5.0990     7.6054 H       
  32 H32            9.8180     5.6811     6.1637 H       
  33 H33           -1.6280     1.7017    -1.2062 H       
@<TRIPOS>BOND
   1    1    2 1
   2    1    3 1
   3    1   20 1
   4    1   21 1
   5    2   22 1
   6    2   23 1
   7    2   24 1
   8    3    4 ar
   9    3    8 ar
  10    4    5 ar
  11    4   25 1
  12    5    6 ar
  13    5   13 1
  14    6    7 ar
  15    6   26 1
  16    7    8 ar
  17    7   27 1
  18    8   28 1
  19    9   10 1
  20    9   13 1
  21   10   11 2
  22   11   12 1
  23   11   15 1
  24   12   13 2
  25   14   15 ar
  26   14   19 ar
  27   14   29 1
  28   15   16 ar
  29   16   17 ar
  30   16   30 1
  31   17   18 ar
  32   17   31 1
  33   18   19 ar
  34   18   32 1
  35   20   33 1

#	End of record

