#	Name: ASD01150160
#	Creating user name:	WinNT
#	Creation time:	15. 06. 2019 19:03

#	Modifying user name:	WinNT
#	Modification time:	15. 06. 2019 19:03

#	Program:	/corina/corina34_cracker 3.40 0067  02.08.2006

@<TRIPOS>MOLECULE
ASD01150160
  56   59    0    0    0
SMALL
NO_CHARGES


@<TRIPOS>ATOM
   1 N1             0.6017     1.8875     0.3303 N.pl3   
   2 C2             0.5247     0.5125     0.2347 C.2     
   3 C3            -0.8286     0.1997     0.2083 C.2     
   4 N4            -1.5023     1.3502     0.2858 N.2     
   5 C5            -0.6629     2.3512     0.3641 C.2     
   6 C6             1.4731    -0.5307     0.1660 C.2     
   7 N7             1.0436    -1.8067     0.0764 N.am    
   8 C8            -0.2690    -2.0950     0.0514 C.2     
   9 N9            -1.2059    -1.1301     0.1152 N.am    
  10 O10            2.6652    -0.2820     0.1869 O.2     
  11 C11           -2.6265    -1.4869     0.0850 C.3     
  12 O12           -0.6192    -3.2566    -0.0304 O.2     
  13 C13            2.0226    -2.8942     0.0047 C.3     
  14 C14            2.3185    -3.3961     1.3945 C.2     
  15 C15           -1.0519     3.8036     0.4659 C.3     
  16 C16           -1.1946     4.1913     1.9390 C.3     
  17 C17            1.8260     2.6899     0.3902 C.3     
  18 C18           -3.1263    -1.7114     1.5136 C.3     
  19 C19           -4.6099    -2.0841     1.4821 C.3     
  20 C20            1.8448    -2.8411     2.5883 C.2     
  21 N21            2.3136    -3.5495     3.5839 N.2     
  22 N22            3.1021    -4.5797     3.0553 N.pl3   
  23 C23            3.0846    -4.4667     1.7080 C.2     
  24 C24            3.7844    -5.5579     3.7926 C.ar    
  25 C25            4.4815    -5.2036     4.9398 C.ar    
  26 C26            5.1528    -6.1689     5.6643 C.ar    
  27 C27            5.1311    -7.4884     5.2476 C.ar    
  28 C28            4.4369    -7.8440     4.1044 C.ar    
  29 C29            3.7593    -6.8832     3.3797 C.ar    
  30 Cl30           5.9764    -8.6994     6.1601 Cl      
  31 C31            3.7973    -5.3662     0.7312 C.3     
  32 F32            2.9884    -6.4691     0.4372 F       
  33 F33            4.0656    -4.6578    -0.4449 F       
  34 F34            4.9996    -5.8067     1.2948 F       
  35 H35           -3.1944    -0.6787    -0.3758 H       
  36 H36           -2.7594    -2.4007    -0.4942 H       
  37 H37            1.6182    -3.7081    -0.5971 H       
  38 H38            2.9414    -2.5264    -0.4520 H       
  39 H39           -0.2819     4.4194     0.0011 H       
  40 H40           -2.0015     3.9621    -0.0452 H       
  41 H41           -1.9645     3.5755     2.4039 H       
  42 H42           -0.2450     4.0328     2.4501 H       
  43 H43           -1.4759     5.2418     2.0127 H       
  44 H44            2.1331     2.9600    -0.6202 H       
  45 H45            1.6391     3.5954     0.9674 H       
  46 H46            2.6166     2.1112     0.8678 H       
  47 H47           -2.5584    -2.5196     1.9744 H       
  48 H48           -2.9934    -0.7977     2.0928 H       
  49 H49           -4.7428    -2.9978     0.9029 H       
  50 H50           -4.9660    -2.2440     2.4998 H       
  51 H51           -5.1778    -1.2759     1.0212 H       
  52 H52            1.2029    -1.9767     2.6735 H       
  53 H53            4.4990    -4.1740     5.2652 H       
  54 H54            5.6955    -5.8937     6.5566 H       
  55 H55            4.4214    -8.8744     3.7812 H       
  56 H56            3.2174    -7.1613     2.4879 H       
@<TRIPOS>BOND
   1    1    2 1
   2    1   17 1
   3    1    5 1
   4    2    3 2
   5    2    6 1
   6    3    4 1
   7    3    9 1
   8    4    5 2
   9    5   15 1
  10    6    7 am
  11    6   10 2
  12    7    8 am
  13    7   13 1
  14    8    9 am
  15    8   12 2
  16    9   11 1
  17   11   18 1
  18   11   35 1
  19   11   36 1
  20   13   14 1
  21   13   37 1
  22   13   38 1
  23   14   20 1
  24   14   23 2
  25   15   16 1
  26   15   39 1
  27   15   40 1
  28   16   41 1
  29   16   42 1
  30   16   43 1
  31   17   44 1
  32   17   45 1
  33   17   46 1
  34   18   19 1
  35   18   47 1
  36   18   48 1
  37   19   49 1
  38   19   50 1
  39   19   51 1
  40   20   21 2
  41   20   52 1
  42   21   22 1
  43   22   23 1
  44   22   24 1
  45   23   31 1
  46   24   25 ar
  47   24   29 ar
  48   25   26 ar
  49   25   53 1
  50   26   27 ar
  51   26   54 1
  52   27   28 ar
  53   27   30 1
  54   28   29 ar
  55   28   55 1
  56   29   56 1
  57   31   32 1
  58   31   33 1
  59   31   34 1

#	End of record

