#	Name: ASD00170315
#	Creating user name:	WinNT
#	Creation time:	15. 06. 2019 18:31

#	Modifying user name:	WinNT
#	Modification time:	15. 06. 2019 18:31

#	Program:	/corina/corina34_cracker 3.40 0067  02.08.2006

@<TRIPOS>MOLECULE
ASD00170315
  35   37    0    0    0
SMALL
NO_CHARGES


@<TRIPOS>ATOM
   1 S1             0.1575     1.6245     0.6732 S.3     
   2 N2            -0.1176     0.3151    -0.3765 N.pl3   
   3 C3             1.1098    -0.1393    -0.7266 C.2     
   4 N4             2.1487     0.4582    -0.2378 N.2     
   5 C5             1.9247     1.4940     0.5878 C.2     
   6 N6             2.8187     2.2460     1.1982 N.2     
   7 C7            -1.3526    -0.1880    -0.7911 C.ar    
   8 C8             1.2589    -1.2894    -1.6438 C.ar    
   9 C9            -2.2253     0.6167    -1.5128 C.ar    
  10 C10           -3.4468     0.1153    -1.9214 C.ar    
  11 C11           -3.8002    -1.1866    -1.6120 C.ar    
  12 C12           -2.9331    -1.9896    -0.8937 C.ar    
  13 C13           -1.7089    -1.4967    -0.4875 C.ar    
  14 C14            0.2901    -1.5401    -2.6167 C.ar    
  15 C15            0.4354    -2.6146    -3.4697 C.ar    
  16 C16            1.5385    -3.4428    -3.3622 C.ar    
  17 C17            2.5025    -3.1998    -2.4000 C.ar    
  18 C18            2.3718    -2.1256    -1.5442 C.ar    
  19 C19            4.2477     1.9870     1.0059 C.3     
  20 C20            4.8898     3.1770     0.2899 C.3     
  21 Cl21          -4.5389     1.1195    -2.8228 Cl      
  22 H22           -1.9498     1.6328    -1.7539 H       
  23 H23           -4.7553    -1.5761    -1.9320 H       
  24 H24           -3.2120    -3.0050    -0.6540 H       
  25 H25           -1.0325    -2.1248     0.0732 H       
  26 H26           -0.5716    -0.8945    -2.7013 H       
  27 H27           -0.3137    -2.8099    -4.2227 H       
  28 H28            1.6474    -4.2828    -4.0322 H       
  29 H29            3.3612    -3.8501    -2.3213 H       
  30 H30            3.1252    -1.9368    -0.7937 H       
  31 H31            4.7250     1.8457     1.9756 H       
  32 H32            4.3762     1.0879     0.4032 H       
  33 H33            4.4125     3.3183    -0.6798 H       
  34 H34            4.7614     4.0761     0.8926 H       
  35 H35            5.9531     2.9843     0.1469 H       
@<TRIPOS>BOND
   1    1    2 1
   2    1    5 1
   3    2    3 1
   4    2    7 1
   5    3    4 2
   6    3    8 1
   7    4    5 1
   8    5    6 2
   9    6   19 1
  10    7    9 ar
  11    7   13 ar
  12    8   14 ar
  13    8   18 ar
  14    9   10 ar
  15    9   22 1
  16   10   11 ar
  17   10   21 1
  18   11   12 ar
  19   11   23 1
  20   12   13 ar
  21   12   24 1
  22   13   25 1
  23   14   15 ar
  24   14   26 1
  25   15   16 ar
  26   15   27 1
  27   16   17 ar
  28   16   28 1
  29   17   18 ar
  30   17   29 1
  31   18   30 1
  32   19   20 1
  33   19   31 1
  34   19   32 1
  35   20   33 1
  36   20   34 1
  37   20   35 1

#	End of record

