#	Name: ASD01880547
#	Creating user name:	WinNT
#	Creation time:	15. 06. 2019 19:40

#	Modifying user name:	WinNT
#	Modification time:	15. 06. 2019 19:40

#	Program:	/corina/corina34_cracker 3.40 0067  02.08.2006

@<TRIPOS>MOLECULE
ASD01880547
  50   53    0    0    0
SMALL
NO_CHARGES


@<TRIPOS>ATOM
   1 N1            -0.0139     1.3122    -0.0055 N.ar    
   2 C2             0.0051    -0.0049    -0.0269 C.ar    
   3 N3             1.1344    -0.6837    -0.0557 N.ar    
   4 C4             2.3056    -0.0609    -0.0647 C.ar    
   5 C5             2.3340     1.3220    -0.0435 C.ar    
   6 C6             1.1197     2.0085    -0.0128 C.ar    
   7 C7             3.6433     2.0681    -0.0523 C.3     
   8 O8             4.0360     2.3250    -1.4020 O.3     
   9 C9             5.2021     2.9939    -1.5877 C.ar    
  10 C10            5.6434     3.2771    -2.8766 C.ar    
  11 C11            6.8230     3.9541    -3.0630 C.ar    
  12 C12            7.5861     4.3624    -1.9640 C.ar    
  13 C13            7.1381     4.0758    -0.6716 C.ar    
  14 C14            5.9516     3.4006    -0.4902 C.ar    
  15 C15            7.5692     4.4096    -4.2923 C.3     
  16 N16            8.7781     5.0871    -3.8100 N.am    
  17 C17            8.7839     5.0575    -2.4663 C.2     
  18 O18            9.6538     5.5368    -1.7650 O.2     
  19 Cl19           3.7842    -0.9698    -0.1021 Cl      
  20 N20            1.0949     3.3948     0.0089 N.pl3   
  21 C21           -0.1239     4.0734    -0.0813 C.ar    
  22 C22           -0.3078     5.2679     0.6034 C.ar    
  23 C23           -1.5131     5.9359     0.5122 C.ar    
  24 C24           -2.5365     5.4165    -0.2595 C.ar    
  25 C25           -2.3567     4.2276    -0.9424 C.ar    
  26 C26           -1.1518     3.5577    -0.8604 C.ar    
  27 C27           10.5314     7.7951    -5.7998 C.3     
  28 C28            9.4543     7.1599    -4.9181 C.3     
  29 C29            9.8095     5.6953    -4.6543 C.3     
  30 H30           -0.9310    -0.5434    -0.0203 H       
  31 H31            3.5266     3.0131     0.4783 H       
  32 H32            4.4074     1.4668     0.4402 H       
  33 H33            5.0590     2.9642    -3.7292 H       
  34 H34            7.7199     4.3862     0.1837 H       
  35 H35            5.6057     3.1797     0.5088 H       
  36 H36            7.8406     3.5505    -4.9057 H       
  37 H37            6.9556     5.1027    -4.8677 H       
  38 H38            1.9231     3.8935     0.0867 H       
  39 H39            0.4908     5.6737     1.2068 H       
  40 H40           -1.6568     6.8646     1.0443 H       
  41 H41           -3.4783     5.9405    -0.3286 H       
  42 H42           -3.1581     3.8246    -1.5439 H       
  43 H43           -1.0120     2.6293    -1.3941 H       
  44 H44           10.2784     8.8385    -5.9877 H       
  45 H45           11.4948     7.7404    -5.2928 H       
  46 H46           10.5884     7.2587    -6.7470 H       
  47 H47            9.3973     7.6962    -3.9708 H       
  48 H48            8.4910     7.2146    -5.4250 H       
  49 H49           10.7728     5.6406    -4.1473 H       
  50 H50            9.8664     5.1590    -5.6015 H       
@<TRIPOS>BOND
   1    1    2 ar
   2    1    6 ar
   3    2    3 ar
   4    2   30 1
   5    3    4 ar
   6    4    5 ar
   7    4   19 1
   8    5    6 ar
   9    5    7 1
  10    6   20 1
  11    7    8 1
  12    7   31 1
  13    7   32 1
  14    8    9 1
  15    9   10 ar
  16    9   14 ar
  17   10   11 ar
  18   10   33 1
  19   11   12 ar
  20   11   15 1
  21   12   13 ar
  22   12   17 1
  23   13   14 ar
  24   13   34 1
  25   14   35 1
  26   15   16 1
  27   15   36 1
  28   15   37 1
  29   16   17 am
  30   16   29 1
  31   17   18 2
  32   20   21 1
  33   20   38 1
  34   21   22 ar
  35   21   26 ar
  36   22   23 ar
  37   22   39 1
  38   23   24 ar
  39   23   40 1
  40   24   25 ar
  41   24   41 1
  42   25   26 ar
  43   25   42 1
  44   26   43 1
  45   27   28 1
  46   27   44 1
  47   27   45 1
  48   27   46 1
  49   28   29 1
  50   28   47 1
  51   28   48 1
  52   29   49 1
  53   29   50 1

#	End of record

