#	Name: ASD01510061
#	Creating user name:	WinNT
#	Creation time:	15. 06. 2019 19:21

#	Modifying user name:	WinNT
#	Modification time:	15. 06. 2019 19:21

#	Program:	/corina/corina34_cracker 3.40 0067  02.08.2006

@<TRIPOS>MOLECULE
ASD01510061
  35   36    0    0    0
SMALL
NO_CHARGES


@<TRIPOS>ATOM
   1 C1            -0.0173     1.4248     0.0099 C.3     
   2 O2             0.0021    -0.0041     0.0020 O.3     
   3 C3             0.6242    -0.6168     1.0388 C.ar    
   4 N4             1.1837     0.1010     2.0073 N.ar    
   5 C5             1.7930    -0.4903     3.0239 C.ar    
   6 N6             1.8702    -1.8093     3.1172 N.ar    
   7 C7             1.3333    -2.5899     2.1852 C.ar    
   8 C8             0.6803    -2.0046     1.1058 C.ar    
   9 I9            -0.1850    -3.1861    -0.3924 I       
  10 O10            1.4170    -3.9388     2.2877 O.3     
  11 C11            2.0998    -4.4616     3.4290 C.3     
  12 N12            2.3642     0.2902     4.0140 N.3     
  13 C13            2.9884    -0.5456     5.0491 C.3     
  14 C14            3.6753     0.3525     6.0806 C.3     
  15 N15            2.6844     1.2635     6.6702 N.3     
  16 C16            2.0602     2.0994     5.6352 C.3     
  17 C17            1.3733     1.2013     4.6037 C.3     
  18 C18            3.2906     2.0919     7.7210 C.3     
  19 H19            1.0053     1.8021     0.0021 H       
  20 H20           -0.5445     1.7859    -0.8732 H       
  21 H21           -0.5275     1.7763     0.9067 H       
  22 H22            1.5966    -4.1295     4.3371 H       
  23 H23            2.0944    -5.5508     3.3882 H       
  24 H24            3.1292    -4.1032     3.4322 H       
  25 H25            2.2237    -1.1462     5.5416 H       
  26 H26            3.7270    -1.2025     4.5895 H       
  27 H27            4.1143    -0.2643     6.8648 H       
  28 H28            4.4584     0.9331     5.5931 H       
  29 H29            1.3216     2.7562     6.0947 H       
  30 H30            2.8249     2.6999     5.1426 H       
  31 H31            0.9343     1.8180     3.8194 H       
  32 H32            0.5902     0.6206     5.0912 H       
  33 H33            4.1001     2.6845     7.2948 H       
  34 H34            2.5355     2.7568     8.1404 H       
  35 H35            3.6860     1.4492     8.5076 H       
@<TRIPOS>BOND
   1    1    2 1
   2    1   19 1
   3    1   20 1
   4    1   21 1
   5    2    3 1
   6    3    4 ar
   7    3    8 ar
   8    4    5 ar
   9    5    6 ar
  10    5   12 1
  11    6    7 ar
  12    7    8 ar
  13    7   10 1
  14    8    9 1
  15   10   11 1
  16   11   22 1
  17   11   23 1
  18   11   24 1
  19   12   13 1
  20   12   17 1
  21   13   14 1
  22   13   25 1
  23   13   26 1
  24   14   15 1
  25   14   27 1
  26   14   28 1
  27   15   16 1
  28   15   18 1
  29   16   17 1
  30   16   29 1
  31   16   30 1
  32   17   31 1
  33   17   32 1
  34   18   33 1
  35   18   34 1
  36   18   35 1

#	End of record

