#	Name: ASD05430246
#	Creating user name:	WinNT
#	Creation time:	15. 06. 2019 21:00

#	Modifying user name:	WinNT
#	Modification time:	15. 06. 2019 21:00

#	Program:	/corina/corina34_cracker 3.40 0067  02.08.2006

@<TRIPOS>MOLECULE
ASD05430246
  60   65    0    0    0
SMALL
NO_CHARGES


@<TRIPOS>ATOM
   1 C1             0.9358     0.8654    -2.1197 C.ar    
   2 C2            -0.1860     1.5693    -1.6822 C.ar    
   3 C3            -0.0334     2.7413    -0.9521 C.ar    
   4 C4             1.2266     3.2135    -0.6564 C.ar    
   5 C5             2.3561     2.5126    -1.0915 C.ar    
   6 C6             2.2028     1.3333    -1.8266 C.ar    
   7 C7             4.4190     0.6749    -0.3275 C.3     
   8 C8             4.6977     2.1515    -0.5029 C.2     
   9 C9             3.7033     3.0160    -0.7769 C.2     
  10 C10            5.0181     0.1984     0.9984 C.3     
  11 S11            6.7879     0.5399     1.2247 S.o2    
  12 N12            7.0064     2.0027     0.4910 N.am    
  13 C13            6.0913     2.6165    -0.3646 C.2     
  14 N14            6.6538     3.6089    -0.9808 N.2     
  15 N15           -1.4695     1.0936    -1.9801 N.pl3   
  16 N16           -1.7907    -0.0669    -2.7032 N.2     
  17 C17           -3.0958    -0.1359    -2.7469 C.2     
  18 N18           -3.6076     0.9085    -2.0966 N.2     
  19 C19           -2.6417     1.6550    -1.6251 C.2     
  20 C20           -3.8925    -1.2214    -3.4236 C.3     
  21 C21            8.1538     2.9093     0.5880 C.3     
  22 O22            8.0131     3.7333    -0.5884 O.3     
  23 C23            8.0682     3.7462     1.8384 C.ar    
  24 C24            4.1252     0.2489     2.2385 C.3     
  25 C25            4.4685    -1.0972     1.5972 C.3     
  26 C26            1.9752    -0.9529    -3.2455 C.3     
  27 O27            0.7829    -0.2839    -2.8295 O.3     
  28 C28            9.4676     2.1263     0.5475 C.3     
  29 C29            8.9494     4.7935     2.0299 C.ar    
  30 C30            8.8716     5.5632     3.1784 C.ar    
  31 C31            7.9109     5.2833     4.1348 C.ar    
  32 C32            7.0289     4.2341     3.9419 C.ar    
  33 C33            7.1049     3.4693     2.7900 C.ar    
  34 O34            7.0789     0.7853     2.5937 O.2     
  35 O35            7.5734    -0.3608     0.4559 O.2     
  36 F36            6.0910     3.9595     4.8747 F       
  37 F37            9.7334     6.5867     3.3656 F       
  38 H38           -0.9046     3.2837    -0.6159 H       
  39 H39            1.3422     4.1251    -0.0890 H       
  40 H40            3.0724     0.7890    -2.1641 H       
  41 H41            3.3421     0.5065    -0.3212 H       
  42 H42            4.8693     0.1197    -1.1503 H       
  43 H43            3.8936     4.0790    -0.7659 H       
  44 H44           -2.7629     2.5653    -1.0567 H       
  45 H45           -4.0851    -2.0265    -2.7145 H       
  46 H46           -4.8398    -0.8119    -3.7744 H       
  47 H47           -3.3289    -1.6111    -4.2713 H       
  48 H48            4.5990     0.4883     3.1905 H       
  49 H49            3.1089     0.6221     2.1120 H       
  50 H50            3.6782    -1.6096     1.0486 H       
  51 H51            5.1683    -1.7433     2.1271 H       
  52 H52            2.5599    -0.2902    -3.8835 H       
  53 H53            2.5633    -1.2258    -2.3693 H       
  54 H54            1.7118    -1.8529    -3.8010 H       
  55 H55            9.5332     1.5748    -0.3904 H       
  56 H56           10.3059     2.8191     0.6210 H       
  57 H57            9.4999     1.4271     1.3831 H       
  58 H58            9.6991     5.0115     1.2838 H       
  59 H59            7.8498     5.8828     5.0310 H       
  60 H60            6.4166     2.6508     2.6391 H       
@<TRIPOS>BOND
   1    1    2 ar
   2    1    6 ar
   3    1   27 1
   4    2    3 ar
   5    2   15 1
   6    3    4 ar
   7    3   38 1
   8    4    5 ar
   9    4   39 1
  10    5    6 ar
  11    5    9 1
  12    6   40 1
  13    7    8 1
  14    7   10 1
  15    7   41 1
  16    7   42 1
  17    8    9 2
  18    8   13 1
  19    9   43 1
  20   10   11 1
  21   10   24 1
  22   10   25 1
  23   11   12 am
  24   11   34 2
  25   11   35 2
  26   12   13 1
  27   12   21 1
  28   13   14 2
  29   14   22 1
  30   15   16 1
  31   15   19 1
  32   16   17 2
  33   17   18 1
  34   17   20 1
  35   18   19 2
  36   19   44 1
  37   20   45 1
  38   20   46 1
  39   20   47 1
  40   21   22 1
  41   21   23 1
  42   21   28 1
  43   23   29 ar
  44   23   33 ar
  45   24   25 1
  46   24   48 1
  47   24   49 1
  48   25   50 1
  49   25   51 1
  50   26   27 1
  51   26   52 1
  52   26   53 1
  53   26   54 1
  54   28   55 1
  55   28   56 1
  56   28   57 1
  57   29   30 ar
  58   29   58 1
  59   30   31 ar
  60   30   37 1
  61   31   32 ar
  62   31   59 1
  63   32   33 ar
  64   32   36 1
  65   33   60 1

#	End of record

