#	Name: ASD06020006
#	Creating user name:	WinNT
#	Creation time:	15. 06. 2019 21:04

#	Modifying user name:	WinNT
#	Modification time:	15. 06. 2019 21:04

#	Program:	/corina/corina34_cracker 3.40 0067  02.08.2006

@<TRIPOS>MOLECULE
ASD06020006
  49   52    0    0    0
SMALL
NO_CHARGES


@<TRIPOS>ATOM
   1 C1             0.0070    -0.0032     0.0571 C.1     
   2 C2            -0.0132     1.4287     0.0548 C.ar    
   3 C3             1.1869     2.1441     0.0334 C.ar    
   4 C4             1.1678     3.5218     0.0307 C.ar    
   5 C5            -0.0522     4.2038     0.0494 C.ar    
   6 C6            -1.2526     3.4878     0.0708 C.ar    
   7 C7            -1.2330     2.1101     0.0681 C.ar    
   8 N8             0.0230    -1.1391     0.0589 N.1     
   9 C9            -0.8916     9.4870     0.0530 C.ar    
  10 C10           -0.5508     8.1300     0.0504 C.ar    
  11 C11            0.7984     7.7572     0.0290 C.ar    
  12 C12            1.7563     8.8031     0.0110 C.ar    
  13 C13            1.3373    10.0959     0.0151 C.ar    
  14 N14            0.0519    10.4123     0.0355 N.ar    
  15 S15           -1.5295     6.6673     0.0690 S.3     
  16 C16           -0.0730     5.6812     0.0470 C.2     
  17 N17            0.9771     6.4361     0.0285 N.2     
  18 N18           -2.2313     9.8644     0.0684 N.pl3   
  19 C19           -1.9500    13.4011     0.4940 C.ar    
  20 N20           -1.6341    12.1267     0.3844 N.ar    
  21 C21           -2.5734    11.2045     0.1830 C.ar    
  22 C22           -3.9029    11.6042     0.0887 C.ar    
  23 C23           -4.1938    12.9597     0.2099 C.ar    
  24 N24           -3.1964    13.8192     0.4105 N.ar    
  25 N25           -5.5024    13.4087     0.1229 N.pl3   
  26 C26           -6.5913    12.4539    -0.0983 C.3     
  27 C27           -7.9237    13.2038    -0.1542 C.3     
  28 C28           -9.0713    12.1974    -0.2602 C.3     
  29 C29           -8.0930    14.0383     1.1169 C.3     
  30 O30           -7.9383    14.0647    -1.2947 O.3     
  31 Cl31          -2.7680     4.3343     0.0940 Cl      
  32 Cl32           2.6588     4.4106     0.0048 Cl      
  33 H33            2.1295     1.6171     0.0193 H       
  34 H34           -2.1604     1.5569     0.0801 H       
  35 H35            2.8115     8.5737    -0.0054 H       
  36 H36            2.0728    10.8866     0.0017 H       
  37 H37           -2.9258     9.1908    -0.0011 H       
  38 H38           -1.1647    14.1234     0.6616 H       
  39 H39           -4.6886    10.8814    -0.0747 H       
  40 H40           -5.6972    14.3551     0.2084 H       
  41 H41           -6.4294    11.9300    -1.0404 H       
  42 H42           -6.6141    11.7330     0.7189 H       
  43 H43           -9.0602    11.5408     0.6097 H       
  44 H44          -10.0206    12.7317    -0.3000 H       
  45 H45           -8.9507    11.6029    -1.1658 H       
  46 H46           -7.2754    14.7553     1.1924 H       
  47 H47           -9.0422    14.5726     1.0771 H       
  48 H48           -8.0818    13.3816     1.9868 H       
  49 H49           -8.7551    14.5727    -1.3935 H       
@<TRIPOS>BOND
   1    1    2 1
   2    1    8 3
   3    2    3 ar
   4    2    7 ar
   5    3    4 ar
   6    3   33 1
   7    4    5 ar
   8    4   32 1
   9    5    6 ar
  10    5   16 1
  11    6    7 ar
  12    6   31 1
  13    7   34 1
  14    9   10 ar
  15    9   14 ar
  16    9   18 1
  17   10   11 ar
  18   10   15 1
  19   11   12 ar
  20   11   17 1
  21   12   13 ar
  22   12   35 1
  23   13   14 ar
  24   13   36 1
  25   15   16 1
  26   16   17 2
  27   18   21 1
  28   18   37 1
  29   19   20 ar
  30   19   24 ar
  31   19   38 1
  32   20   21 ar
  33   21   22 ar
  34   22   23 ar
  35   22   39 1
  36   23   24 ar
  37   23   25 1
  38   25   26 1
  39   25   40 1
  40   26   27 1
  41   26   41 1
  42   26   42 1
  43   27   28 1
  44   27   29 1
  45   27   30 1
  46   28   43 1
  47   28   44 1
  48   28   45 1
  49   29   46 1
  50   29   47 1
  51   29   48 1
  52   30   49 1

#	End of record

