#	Name: ASD03092060
#	Creating user name:	WinNT
#	Creation time:	15. 06. 2019 20:31

#	Modifying user name:	WinNT
#	Modification time:	15. 06. 2019 20:31

#	Program:	/corina/corina34_cracker 3.40 0067  02.08.2006

@<TRIPOS>MOLECULE
ASD03092060
  47   50    0    0    0
SMALL
NO_CHARGES


@<TRIPOS>ATOM
   1 N1            -0.1543     0.9711     0.1743 N.am    
   2 C2            -0.3500    -0.3817     0.0708 C.2     
   3 C3            -1.6935    -0.5922    -0.0253 C.2     
   4 C4            -2.3290     0.6591     0.0207 C.2     
   5 N5            -1.4112     1.5886     0.1452 N.2     
   6 N6            -3.7073     0.8774    -0.0485 N.pl3   
   7 C7            -4.2205     2.1695     0.1156 C.ar    
   8 C8            -5.5946     2.3694     0.1834 C.ar    
   9 C9            -6.0988     3.6487     0.3457 C.ar    
  10 C10           -5.2333     4.7278     0.4402 C.ar    
  11 C11           -3.3577     3.2526     0.2165 C.ar    
  12 C12            0.7021    -1.4209     0.0642 C.ar    
  13 C13            1.0347     1.5952     0.2894 C.2     
  14 C14            0.5055    -2.6474     0.7088 C.ar    
  15 C15            1.5138    -3.5884     0.6775 C.ar    
  16 N16            2.6493    -3.3441     0.0519 N.ar    
  17 C17            2.8756    -2.2014    -0.5682 C.ar    
  18 C18            1.9201    -1.2073    -0.5920 C.ar    
  19 C19            4.1938    -1.9821    -1.2648 C.3     
  20 N20            1.0938     2.9415     0.2704 N.am    
  21 O21            2.0535     0.9439     0.4104 O.2     
  22 C22            2.3863     3.6198     0.3955 C.3     
  23 C23            2.1745     5.1342     0.3444 C.3     
  24 C24           -3.8652     4.5283     0.3722 C.ar    
  25 F25           -7.4338     3.8455     0.4114 F       
  26 C26            3.3955     6.0265     0.5768 C.3     
  27 C27            2.7995     5.8958    -0.8262 C.3     
  28 F28           -6.4368     1.3170     0.0907 F       
  29 F29           -5.7260     5.9757     0.5986 F       
  30 H30           -2.1820    -1.5507    -0.1199 H       
  31 H31           -4.3086     0.1336    -0.2102 H       
  32 H32           -2.2898     3.0985     0.1688 H       
  33 H33           -0.4214    -2.8541     1.2232 H       
  34 H34            1.3718    -4.5378     1.1723 H       
  35 H35            2.1119    -0.2747    -1.1017 H       
  36 H36            4.1195    -2.3212    -2.2981 H       
  37 H37            4.4417    -0.9208    -1.2476 H       
  38 H38            4.9736    -2.5457    -0.7526 H       
  39 H39            0.2806     3.4613     0.1738 H       
  40 H40            2.8481     3.3493     1.3451 H       
  41 H41            3.0369     3.3160    -0.4246 H       
  42 H42            1.2142     5.4875     0.7198 H       
  43 H43           -3.1933     5.3707     0.4454 H       
  44 H44            3.2383     6.9670     1.1048 H       
  45 H45            4.3496     5.5346     0.7661 H       
  46 H46            3.3614     5.3179    -1.5600 H       
  47 H47            2.2501     6.7503    -1.2213 H       
@<TRIPOS>BOND
   1    1    2 1
   2    1   13 am
   3    1    5 1
   4    2    3 2
   5    2   12 1
   6    3    4 1
   7    3   30 1
   8    4    5 2
   9    4    6 1
  10    6    7 1
  11    6   31 1
  12    7    8 ar
  13    7   11 ar
  14    8    9 ar
  15    8   28 1
  16    9   10 ar
  17    9   25 1
  18   10   24 ar
  19   10   29 1
  20   11   24 ar
  21   11   32 1
  22   12   14 ar
  23   12   18 ar
  24   13   20 am
  25   13   21 2
  26   14   15 ar
  27   14   33 1
  28   15   16 ar
  29   15   34 1
  30   16   17 ar
  31   17   18 ar
  32   17   19 1
  33   18   35 1
  34   19   36 1
  35   19   37 1
  36   19   38 1
  37   20   22 1
  38   20   39 1
  39   22   23 1
  40   22   40 1
  41   22   41 1
  42   23   26 1
  43   23   27 1
  44   23   42 1
  45   24   43 1
  46   26   27 1
  47   26   44 1
  48   26   45 1
  49   27   46 1
  50   27   47 1

#	End of record

