#	Name: ASD01881188
#	Creating user name:	WinNT
#	Creation time:	15. 06. 2019 19:42

#	Modifying user name:	WinNT
#	Modification time:	15. 06. 2019 19:42

#	Program:	/corina/corina34_cracker 3.40 0067  02.08.2006

@<TRIPOS>MOLECULE
ASD01881188
  51   53    0    0    0
SMALL
NO_CHARGES


@<TRIPOS>ATOM
   1 N1            -0.0159     1.3188     0.0093 N.ar    
   2 C2             0.0021    -0.0041     0.0020 C.ar    
   3 N3             1.1383    -0.6823    -0.0120 N.ar    
   4 C4             2.3018    -0.0529    -0.0198 C.ar    
   5 C5             2.3203     1.3332    -0.0129 C.ar    
   6 C6             1.1118     2.0109     0.0022 C.ar    
   7 C7             3.6257     2.0861    -0.0209 C.3     
   8 O8             4.7114     1.1571    -0.0353 O.3     
   9 C9             5.9657     1.6753    -0.0439 C.ar    
  10 C10            7.0684     0.8261    -0.0581 C.ar    
  11 C11            8.3367     1.3503    -0.0673 C.ar    
  12 C12            8.5303     2.7360    -0.0626 C.ar    
  13 C13            7.4189     3.5855    -0.0483 C.ar    
  14 C14            6.1472     3.0524    -0.0444 C.ar    
  15 C15            9.7111     0.7289    -0.0834 C.3     
  16 N16           10.6647     1.8441    -0.0872 N.am    
  17 C17            9.9788     2.9999    -0.0751 C.2     
  18 O18           10.4829     4.1064    -0.0750 O.2     
  19 Cl19           7.6403     5.3073    -0.0416 Cl      
  20 C20            1.0035     6.0807    -2.8627 C.3     
  21 C21            1.0278     5.5640    -1.4228 C.3     
  22 C22            1.0579     4.0343    -1.4303 C.3     
  23 C23            1.0822     3.5176     0.0096 C.3     
  24 C24           12.6182     1.6820    -1.5498 C.3     
  25 C25           12.1242     1.7185    -0.1022 C.3     
  26 O26           -1.1713    -0.6808     0.0096 O.3     
  27 C27           -1.0972    -2.1079     0.0012 C.3     
  28 H28            3.2258    -0.6119    -0.0309 H       
  29 H29            3.6757     2.7172    -0.9082 H       
  30 H30            3.6917     2.7082     0.8717 H       
  31 H31            6.9261    -0.2445    -0.0615 H       
  32 H32            5.2891     3.7081    -0.0338 H       
  33 H33            9.8554     0.1154     0.8059 H       
  34 H34            9.8384     0.1240    -0.9812 H       
  35 H35            0.9821     7.1705    -2.8573 H       
  36 H36            1.8953     5.7374    -3.3870 H       
  37 H37            0.1158     5.7024    -3.3695 H       
  38 H38            1.9155     5.9424    -0.9159 H       
  39 H39            0.1360     5.9073    -0.8984 H       
  40 H40            0.1701     3.6560    -1.9371 H       
  41 H41            1.9497     3.6910    -1.9546 H       
  42 H42            0.1904     3.8609     0.5340 H       
  43 H43            1.9699     3.8960     0.5165 H       
  44 H44           13.7041     1.5885    -1.5609 H       
  45 H45           12.1748     0.8291    -2.0636 H       
  46 H46           12.3275     2.6024    -2.0562 H       
  47 H47           12.5676     2.5715     0.4116 H       
  48 H48           12.4149     0.7981     0.4042 H       
  49 H49           -2.1046    -2.5241     0.0086 H       
  50 H50           -0.5738    -2.4393    -0.8956 H       
  51 H51           -0.5568    -2.4488     0.8843 H       
@<TRIPOS>BOND
   1    1    2 ar
   2    1    6 ar
   3    2    3 ar
   4    2   26 1
   5    3    4 ar
   6    4    5 ar
   7    4   28 1
   8    5    6 ar
   9    5    7 1
  10    6   23 1
  11    7    8 1
  12    7   29 1
  13    7   30 1
  14    8    9 1
  15    9   10 ar
  16    9   14 ar
  17   10   11 ar
  18   10   31 1
  19   11   12 ar
  20   11   15 1
  21   12   13 ar
  22   12   17 1
  23   13   14 ar
  24   13   19 1
  25   14   32 1
  26   15   16 1
  27   15   33 1
  28   15   34 1
  29   16   17 am
  30   16   25 1
  31   17   18 2
  32   20   21 1
  33   20   35 1
  34   20   36 1
  35   20   37 1
  36   21   22 1
  37   21   38 1
  38   21   39 1
  39   22   23 1
  40   22   40 1
  41   22   41 1
  42   23   42 1
  43   23   43 1
  44   24   25 1
  45   24   44 1
  46   24   45 1
  47   24   46 1
  48   25   47 1
  49   25   48 1
  50   26   27 1
  51   27   49 1
  52   27   50 1
  53   27   51 1

#	End of record

