#	Name: ASD00190019
#	Creating user name:	WinNT
#	Creation time:	15. 06. 2019 18:33

#	Modifying user name:	WinNT
#	Modification time:	15. 06. 2019 18:33

#	Program:	/corina/corina34_cracker 3.40 0067  02.08.2006

@<TRIPOS>MOLECULE
ASD00190019
  51   54    0    0    0
SMALL
NO_CHARGES


@<TRIPOS>ATOM
   1 C1             0.1598     1.5677     1.0139 C.ar    
   2 C2             0.1128     0.1877     1.0135 C.ar    
   3 C3             0.9029    -0.5332     0.1348 C.ar    
   4 C4             1.7421     0.1263    -0.7457 C.ar    
   5 C5             1.7933     1.5076    -0.7498 C.ar    
   6 C6             1.0009     2.2332     0.1316 C.ar    
   7 N7             1.0503     3.6329     0.1301 N.pl3   
   8 N8             2.1271     4.3327     0.1598 N.2     
   9 C9             1.8402     5.6204     0.1488 C.2     
  10 C10            0.4338     5.7386     0.1078 C.2     
  11 C11           -0.0394     4.4562     0.0909 C.2     
  12 C12           -0.3748     7.0101     0.0822 C.3     
  13 C13           -1.4586     4.0399     0.0482 C.ar    
  14 C14            2.8110     6.7331     0.1746 C.2     
  15 N15            4.1330     6.4732     0.2130 N.am    
  16 N16            5.0329     7.4983     0.1398 N.3     
  17 C17           -1.9015     3.1620    -0.9416 C.ar    
  18 C18           -3.2260     2.7775    -0.9763 C.ar    
  19 C19           -4.1147     3.2608    -0.0317 C.ar    
  20 C20           -3.6814     4.1323     0.9523 C.ar    
  21 C21           -2.3580     4.5192     1.0010 C.ar    
  22 C22            5.9885     7.2824    -0.9541 C.3     
  23 C23            6.8864     8.5132    -1.0992 C.3     
  24 C24            7.6331     8.7521     0.2161 C.3     
  25 C25            6.6157     8.9256     1.3472 C.3     
  26 C26            5.7257     7.6829     1.4213 C.3     
  27 I27           -6.1242     2.6714    -0.0922 I       
  28 O28            2.4178     7.8834     0.1613 O.2     
  29 Cl29           2.8466     2.3350    -1.8542 Cl      
  30 Cl30           0.8413    -2.2681     0.1379 Cl      
  31 H31           -0.4603     2.1293     1.6969 H       
  32 H32           -0.5409    -0.3299     1.6999 H       
  33 H33            2.3577    -0.4385    -1.4301 H       
  34 H34           -0.5403     7.3146    -0.9513 H       
  35 H35           -1.3350     6.8399     0.5690 H       
  36 H36            0.1662     7.7953     0.6102 H       
  37 H37            4.4453     5.5583     0.2926 H       
  38 H38           -1.2089     2.7845    -1.6793 H       
  39 H39           -3.5701     2.0982    -1.7422 H       
  40 H40           -4.3796     4.5067     1.6862 H       
  41 H41           -2.0210     5.1993     1.7693 H       
  42 H42            6.6022     6.4091    -0.7332 H       
  43 H43            5.4446     7.1180    -1.8843 H       
  44 H44            7.6058     8.3464    -1.9009 H       
  45 H45            6.2746     9.3843    -1.3337 H       
  46 H46            8.2746     7.8975     0.4312 H       
  47 H47            8.2409     9.6529     0.1315 H       
  48 H48            7.1417     9.0535     2.2933 H       
  49 H49            5.9997     9.8032     1.1512 H       
  50 H50            4.9909     7.8093     2.2165 H       
  51 H51            6.3407     6.8077     1.6311 H       
@<TRIPOS>BOND
   1    1    2 ar
   2    1    6 ar
   3    1   31 1
   4    2    3 ar
   5    2   32 1
   6    3    4 ar
   7    3   30 1
   8    4    5 ar
   9    4   33 1
  10    5    6 ar
  11    5   29 1
  12    6    7 1
  13    7    8 1
  14    7   11 1
  15    8    9 2
  16    9   10 1
  17    9   14 1
  18   10   11 2
  19   10   12 1
  20   11   13 1
  21   12   34 1
  22   12   35 1
  23   12   36 1
  24   13   17 ar
  25   13   21 ar
  26   14   15 am
  27   14   28 2
  28   15   16 1
  29   15   37 1
  30   16   22 1
  31   16   26 1
  32   17   18 ar
  33   17   38 1
  34   18   19 ar
  35   18   39 1
  36   19   20 ar
  37   19   27 1
  38   20   21 ar
  39   20   40 1
  40   21   41 1
  41   22   23 1
  42   22   42 1
  43   22   43 1
  44   23   24 1
  45   23   44 1
  46   23   45 1
  47   24   25 1
  48   24   46 1
  49   24   47 1
  50   25   26 1
  51   25   48 1
  52   25   49 1
  53   26   50 1
  54   26   51 1

#	End of record

