#	Name: ASD01881771
#	Creating user name:	WinNT
#	Creation time:	15. 06. 2019 19:43

#	Modifying user name:	WinNT
#	Modification time:	15. 06. 2019 19:43

#	Program:	/corina/corina34_cracker 3.40 0067  02.08.2006

@<TRIPOS>MOLECULE
ASD01881771
  46   48    0    0    0
SMALL
NO_CHARGES


@<TRIPOS>ATOM
   1 C1             0.1763     1.6255     0.1876 C.2     
   2 C2             0.0516     0.1237     0.1939 C.3     
   3 C3            -0.7930    -0.3230    -1.0011 C.3     
   4 C4            -0.9197    -1.8477    -0.9946 C.3     
   5 O5             1.2565     2.1412     0.0230 O.2     
   6 O6            -0.9134     2.3902     0.3592 O.3     
   7 C7            -2.1850     0.3048    -0.9049 C.3     
   8 O8             1.3516    -0.4627     0.1041 O.3     
   9 N9             2.4721    -5.0535     2.8741 N.pl3   
  10 N10            3.8381    -5.0952     2.5580 N.2     
  11 N11            4.1362    -4.0891     1.8140 N.2     
  12 C12            3.0430    -3.3340     1.5869 C.ar    
  13 C13            1.9628    -3.9335     2.2575 C.ar    
  14 C14            2.8277    -2.1559     0.8586 C.ar    
  15 C15            1.5636    -1.6054     0.8102 C.ar    
  16 C16            0.5031    -2.2112     1.4796 C.ar    
  17 C17            0.6982    -3.3592     2.1947 C.ar    
  18 C18            1.7320    -6.0162     3.6938 C.3     
  19 C19            1.7704    -5.5748     5.1583 C.3     
  20 C20            0.9526    -6.3887     6.1631 C.3     
  21 C21            2.4789    -6.4943     6.1549 C.3     
  22 Br22           4.2616    -1.3262    -0.0532 Br      
  23 C23           -0.7185     3.8289     0.3417 C.3     
  24 C24           -2.0630     4.5283     0.5514 C.3     
  25 H25           -0.4286    -0.1971     1.1184 H       
  26 H26           -0.3129    -0.0022    -1.9255 H       
  27 H27           -1.3999    -2.1685    -0.0702 H       
  28 H28           -1.5214    -2.1659    -1.8460 H       
  29 H29            0.0719    -2.2950    -1.0631 H       
  30 H30           -2.0947     1.3910    -0.9095 H       
  31 H31           -2.7867    -0.0134    -1.7563 H       
  32 H32           -2.6652    -0.0160     0.0195 H       
  33 H33           -0.4814    -1.7696     1.4338 H       
  34 H34           -0.1306    -3.8212     2.7105 H       
  35 H35            0.6970    -6.0618     3.3551 H       
  36 H36            2.1891    -7.0011     3.5991 H       
  37 H37            1.8453    -4.5000     5.3235 H       
  38 H38            0.4898    -5.8494     6.9896 H       
  39 H39            0.3872    -7.2386     5.7808 H       
  40 H40            2.9177    -7.4137     5.7673 H       
  41 H41            3.0203    -6.0245     6.9761 H       
  42 H42           -0.0330     4.1125     1.1403 H       
  43 H43           -0.2998     4.1272    -0.6195 H       
  44 H44           -2.4817     4.2301     1.5126 H       
  45 H45           -1.9167     5.6084     0.5383 H       
  46 H46           -2.7485     4.2448    -0.2471 H       
@<TRIPOS>BOND
   1    1    2 1
   2    1    5 2
   3    1    6 1
   4    2    3 1
   5    2    8 1
   6    2   25 1
   7    3    4 1
   8    3    7 1
   9    3   26 1
  10    4   27 1
  11    4   28 1
  12    4   29 1
  13    6   23 1
  14    7   30 1
  15    7   31 1
  16    7   32 1
  17    8   15 1
  18    9   10 1
  19    9   13 1
  20    9   18 1
  21   10   11 2
  22   11   12 1
  23   12   13 ar
  24   12   14 ar
  25   13   17 ar
  26   14   15 ar
  27   14   22 1
  28   15   16 ar
  29   16   17 ar
  30   16   33 1
  31   17   34 1
  32   18   19 1
  33   18   35 1
  34   18   36 1
  35   19   20 1
  36   19   21 1
  37   19   37 1
  38   20   21 1
  39   20   38 1
  40   20   39 1
  41   21   40 1
  42   21   41 1
  43   23   24 1
  44   23   42 1
  45   23   43 1
  46   24   44 1
  47   24   45 1
  48   24   46 1

#	End of record

