#	Name: ASD07930417
#	Creating user name:	WinNT
#	Creation time:	15. 06. 2019 21:12

#	Modifying user name:	WinNT
#	Modification time:	15. 06. 2019 21:12

#	Program:	/corina/corina34_cracker 3.40 0067  02.08.2006

@<TRIPOS>MOLECULE
ASD07930417
  46   48    0    0    0
SMALL
NO_CHARGES


@<TRIPOS>ATOM
   1 N1            -0.0130     1.3007    -0.0268 N.2     
   2 N2             1.1950    -0.6998    -0.0381 N.pl3   
   3 C3             1.4417    -1.7358     0.9704 C.3     
   4 C4             0.3487    -2.8090     0.8712 C.3     
   5 S5            -1.2691    -1.9956     1.0589 S.o2    
   6 N6            -1.1743    -0.7352    -0.0268 N.am    
   7 C7             0.0042    -0.0026    -0.0306 C.2     
   8 C8            -2.2804    -0.4165    -0.9331 C.3     
   9 C9             1.4157    -1.1075     2.3652 C.3     
  10 C10            2.7888    -2.3654     0.7260 C.ar    
  11 C11            3.9244    -1.5807     0.7621 C.ar    
  12 C12            5.1629    -2.1664     0.5366 C.ar    
  13 C13            5.2139    -3.5254     0.2820 C.ar    
  14 C14            4.0298    -4.2543     0.2607 C.ar    
  15 N15            2.8685    -3.6602     0.4856 N.ar    
  16 O16           -2.3104    -2.8222     0.5571 O.2     
  17 O17           -1.3730    -1.3665     2.3288 O.2     
  18 N18            4.0666    -5.6233     0.0052 N.am    
  19 C19            2.9372    -6.3544     0.0857 C.2     
  20 O20            1.9064    -5.8397     0.4719 O.2     
  21 C21            2.9525    -7.7852    -0.2967 C.ar    
  22 N22            4.0797    -8.3506    -0.7198 N.ar    
  23 C23            4.0894    -9.6241    -1.0592 C.ar    
  24 C24            2.9264   -10.3758    -0.9760 C.ar    
  25 N25            1.8037    -9.8191    -0.5568 N.ar    
  26 C26            1.7864    -8.5451    -0.2088 C.ar    
  27 C27            2.9433   -11.8315    -1.3654 C.3     
  28 H28            0.8205     1.7967    -0.0295 H       
  29 H29            1.8694    -0.5023    -0.7067 H       
  30 H30            0.4028    -3.2997    -0.1006 H       
  31 H31            0.4839    -3.5454     1.6634 H       
  32 H32           -2.9484     0.2989    -0.4535 H       
  33 H33           -1.8843     0.0159    -1.8519 H       
  34 H34           -2.8315    -1.3271    -1.1681 H       
  35 H35            0.4402    -0.6543     2.5415 H       
  36 H36            1.5991    -1.8779     3.1142 H       
  37 H37            2.1894    -0.3428     2.4336 H       
  38 H38            3.8500    -0.5223     0.9633 H       
  39 H39            6.0660    -1.5746     0.5591 H       
  40 H40            6.1603    -4.0134     0.1019 H       
  41 H41            4.9050    -6.0503    -0.2307 H       
  42 H42            5.0045   -10.0833    -1.4031 H       
  43 H43            0.8687    -8.0903     0.1338 H       
  44 H44            3.1820   -12.4385    -0.4921 H       
  45 H45            1.9637   -12.1164    -1.7492 H       
  46 H46            3.6965   -11.9926    -2.1367 H       
@<TRIPOS>BOND
   1    1    7 2
   2    1   28 1
   3    2    3 1
   4    2    7 1
   5    2   29 1
   6    3    4 1
   7    3    9 1
   8    3   10 1
   9    4    5 1
  10    4   30 1
  11    4   31 1
  12    5    6 am
  13    5   16 2
  14    5   17 2
  15    6    7 1
  16    6    8 1
  17    8   32 1
  18    8   33 1
  19    8   34 1
  20    9   35 1
  21    9   36 1
  22    9   37 1
  23   10   11 ar
  24   10   15 ar
  25   11   12 ar
  26   11   38 1
  27   12   13 ar
  28   12   39 1
  29   13   14 ar
  30   13   40 1
  31   14   15 ar
  32   14   18 1
  33   18   19 am
  34   18   41 1
  35   19   20 2
  36   19   21 1
  37   21   22 ar
  38   21   26 ar
  39   22   23 ar
  40   23   24 ar
  41   23   42 1
  42   24   25 ar
  43   24   27 1
  44   25   26 ar
  45   26   43 1
  46   27   44 1
  47   27   45 1
  48   27   46 1

#	End of record

