#	Name: ASD01900596
#	Creating user name:	WinNT
#	Creation time:	15. 06. 2019 19:52

#	Modifying user name:	WinNT
#	Modification time:	15. 06. 2019 19:52

#	Program:	/corina/corina34_cracker 3.40 0067  02.08.2006

@<TRIPOS>MOLECULE
ASD01900596
  40   43    0    0    0
SMALL
NO_CHARGES


@<TRIPOS>ATOM
   1 C1            -0.0165     1.3646     0.0095 C.2     
   2 N2             0.0021    -0.0041     0.0020 N.pl3   
   3 C3             1.3258    -0.3942    -0.0127 C.ar    
   4 C4             2.0842     0.7909    -0.0136 C.ar    
   5 N5             1.2098     1.8250     0.0003 N.2     
   6 C6             3.4808     0.7128    -0.0269 C.ar    
   7 C7             4.0942    -0.5076    -0.0390 C.ar    
   8 C8             3.3460    -1.6763    -0.0381 C.ar    
   9 C9             1.9680    -1.6247    -0.0251 C.ar    
  10 C10           -1.2387     2.1991     0.0201 C.ar    
  11 C11           -1.1272     3.5890     0.0271 C.ar    
  12 C12           -2.2797     4.3559     0.0364 C.ar    
  13 C13           -3.5065     3.7078     0.0384 C.ar    
  14 C14           -3.5437     2.3247     0.0311 C.ar    
  15 N15           -2.4326     1.6183     0.0172 N.ar    
  16 S16            5.8537    -0.5988    -0.0563 S.o2    
  17 O17            6.1337    -1.8492    -0.6706 O.2     
  18 O18            6.2619     0.6214    -0.6594 O.2     
  19 C19            6.3226    -0.6310     1.6957 C.3     
  20 C20            7.8230    -0.7094     1.8128 C.ar    
  21 C21            8.5747     0.4513     1.8721 C.ar    
  22 C22            9.9533     0.3781     1.9796 C.ar    
  23 C23           10.5787    -0.8534     2.0278 C.ar    
  24 C24            9.8292    -2.0131     1.9688 C.ar    
  25 C25            8.4500    -1.9423     1.8669 C.ar    
  26 F26            7.7171    -3.0760     1.8153 F       
  27 F27            7.9636     1.6553     1.8245 F       
  28 H28           -0.7708    -0.5902     0.0065 H       
  29 H29            4.0731     1.6159    -0.0281 H       
  30 H30            3.8465    -2.6333    -0.0481 H       
  31 H31            1.3911    -2.5376    -0.0242 H       
  32 H32           -0.1556     4.0605     0.0256 H       
  33 H33           -2.2250     5.4345     0.0423 H       
  34 H34           -4.4239     4.2777     0.0460 H       
  35 H35           -4.4972     1.8175     0.0327 H       
  36 H36            5.9670     0.2764     2.1838 H       
  37 H37            5.8747    -1.5012     2.1757 H       
  38 H38           10.5400     1.2837     2.0255 H       
  39 H39           11.6540    -0.9096     2.1114 H       
  40 H40           10.3190    -2.9749     2.0062 H       
@<TRIPOS>BOND
   1    1    2 1
   2    1    5 2
   3    1   10 1
   4    2    3 1
   5    2   28 1
   6    3    4 ar
   7    3    9 ar
   8    4    5 1
   9    4    6 ar
  10    6    7 ar
  11    6   29 1
  12    7    8 ar
  13    7   16 1
  14    8    9 ar
  15    8   30 1
  16    9   31 1
  17   10   11 ar
  18   10   15 ar
  19   11   12 ar
  20   11   32 1
  21   12   13 ar
  22   12   33 1
  23   13   14 ar
  24   13   34 1
  25   14   15 ar
  26   14   35 1
  27   16   17 2
  28   16   18 2
  29   16   19 1
  30   19   20 1
  31   19   36 1
  32   19   37 1
  33   20   21 ar
  34   20   25 ar
  35   21   22 ar
  36   21   27 1
  37   22   23 ar
  38   22   38 1
  39   23   24 ar
  40   23   39 1
  41   24   25 ar
  42   24   40 1
  43   25   26 1

#	End of record

