#	Name: ASD04590563
#	Creating user name:	WinNT
#	Creation time:	15. 06. 2019 20:51

#	Modifying user name:	WinNT
#	Modification time:	15. 06. 2019 20:51

#	Program:	/corina/corina34_cracker 3.40 0067  02.08.2006

@<TRIPOS>MOLECULE
ASD04590563
  62   67    0    0    0
SMALL
NO_CHARGES


@<TRIPOS>ATOM
   1 N1             2.2756     1.4479    -0.0337 N.ar    
   2 C2             2.4033     0.1287    -0.0496 C.ar    
   3 C3             1.2882    -0.6784    -0.0313 C.ar    
   4 C4             0.0243    -0.0953    -0.0032 C.ar    
   5 C5            -0.0734     1.2828     0.0099 C.ar    
   6 C6             1.0942     2.0390    -0.0051 C.ar    
   7 C7             3.7943    -0.4527    -0.0948 C.3     
   8 C8             3.7583    -1.9255     0.3131 C.3     
   9 N9             2.7196    -2.6054    -0.4770 N.3     
  10 C10            1.3873    -2.1803    -0.0354 C.3     
  11 N11            1.0173     3.4288     0.0107 N.pl3   
  12 C12            2.1738     4.1856     0.1079 C.ar    
  13 N13            2.0850     5.5022     0.0130 N.ar    
  14 C14            3.1725     6.2623     0.1018 C.ar    
  15 C15            4.4179     5.6325     0.2988 C.ar    
  16 C16            4.4614     4.2452     0.3929 C.ar    
  17 N17            3.3308     3.5648     0.2983 N.ar    
  18 N18            3.3764     7.6185     0.0413 N.pl3   
  19 C19            4.7229     7.9127     0.1923 C.ar    
  20 C20            5.4220     6.7029     0.3573 C.ar    
  21 C21            5.4393     9.1005     0.2071 C.ar    
  22 N22            6.7474     9.0950     0.3724 N.ar    
  23 C23            7.4376     7.9756     0.5305 C.ar    
  24 C24            6.8037     6.7441     0.5296 C.ar    
  25 C25            2.3202     8.6145    -0.1559 C.3     
  26 C26            1.3046     8.5133     0.9839 C.3     
  27 C27            0.2016     9.5535     0.7780 C.3     
  28 C28           -0.5013     9.2941    -0.5560 C.3     
  29 C29            0.5143     9.3952    -1.6958 C.3     
  30 C30            1.6173     8.3551    -1.4899 C.3     
  31 C31           -1.6043    10.3343    -0.7619 C.3     
  32 O32            8.7841     8.0361     0.6959 O.3     
  33 C33            9.3809     9.3345     0.6882 C.3     
  34 H34           -0.8641    -0.7093     0.0078 H       
  35 H35           -1.0396     1.7648     0.0317 H       
  36 H36            4.1895    -0.3672    -1.1071 H       
  37 H37            4.4388     0.0971     0.5911 H       
  38 H38            4.7272    -2.3839     0.1155 H       
  39 H39            3.5220    -2.0057     1.3742 H       
  40 H40            2.8454    -2.4339    -1.4634 H       
  41 H41            1.2045    -2.5561     0.9712 H       
  42 H42            0.6363    -2.5891    -0.7113 H       
  43 H43            0.1540     3.8675    -0.0464 H       
  44 H44            5.4004     3.7333     0.5434 H       
  45 H45            4.9204    10.0393     0.0817 H       
  46 H46            7.3698     5.8335     0.6587 H       
  47 H47            2.7588     9.6123    -0.1643 H       
  48 H48            0.8660     7.5155     0.9923 H       
  49 H49            1.8054     8.6981     1.9342 H       
  50 H50           -0.5219     9.4815     1.5900 H       
  51 H51            0.6402    10.5513     0.7696 H       
  52 H52           -0.9399     8.2963    -0.5476 H       
  53 H53            0.0135     9.2105    -2.6462 H       
  54 H54            0.9529    10.3931    -1.7042 H       
  55 H55            2.3408     8.4271    -2.3019 H       
  56 H56            1.1787     7.3572    -1.4815 H       
  57 H57           -1.1657    11.3321    -0.7704 H       
  58 H58           -2.1051    10.1495    -1.7123 H       
  59 H59           -2.3279    10.2622     0.0501 H       
  60 H60            9.1810     9.8206    -0.2667 H       
  61 H61            8.9594     9.9329     1.4958 H       
  62 H62           10.4576     9.2403     0.8296 H       
@<TRIPOS>BOND
   1    1    2 ar
   2    1    6 ar
   3    2    3 ar
   4    2    7 1
   5    3    4 ar
   6    3   10 1
   7    4    5 ar
   8    4   34 1
   9    5    6 ar
  10    5   35 1
  11    6   11 1
  12    7    8 1
  13    7   36 1
  14    7   37 1
  15    8    9 1
  16    8   38 1
  17    8   39 1
  18    9   10 1
  19    9   40 1
  20   10   41 1
  21   10   42 1
  22   11   12 1
  23   11   43 1
  24   12   13 ar
  25   12   17 ar
  26   13   14 ar
  27   14   15 ar
  28   14   18 1
  29   15   16 ar
  30   15   20 1
  31   16   17 ar
  32   16   44 1
  33   18   19 1
  34   18   25 1
  35   19   20 ar
  36   19   21 ar
  37   20   24 ar
  38   21   22 ar
  39   21   45 1
  40   22   23 ar
  41   23   24 ar
  42   23   32 1
  43   24   46 1
  44   25   26 1
  45   25   30 1
  46   25   47 1
  47   26   27 1
  48   26   48 1
  49   26   49 1
  50   27   28 1
  51   27   50 1
  52   27   51 1
  53   28   29 1
  54   28   31 1
  55   28   52 1
  56   29   30 1
  57   29   53 1
  58   29   54 1
  59   30   55 1
  60   30   56 1
  61   31   57 1
  62   31   58 1
  63   31   59 1
  64   32   33 1
  65   33   60 1
  66   33   61 1
  67   33   62 1

#	End of record

