#	Name: ASD01816854
#	Creating user name:	WinNT
#	Creation time:	15. 06. 2019 19:36

#	Modifying user name:	WinNT
#	Modification time:	15. 06. 2019 19:36

#	Program:	/corina/corina34_cracker 3.40 0067  02.08.2006

@<TRIPOS>MOLECULE
ASD01816854
  52   55    0    0    0
SMALL
NO_CHARGES


@<TRIPOS>ATOM
   1 C1            -0.0168     1.3897     0.0097 C.ar    
   2 C2             0.0021    -0.0041     0.0020 C.ar    
   3 C3             1.1796    -0.6877    -0.0129 C.ar    
   4 C4             2.3927     0.0187    -0.0207 C.ar    
   5 C5             2.3768     1.4381    -0.0130 C.ar    
   6 C6             1.1385     2.1078     0.0025 C.ar    
   7 C7             3.6297    -0.6529    -0.0357 C.ar    
   8 C8             4.7711     0.0956    -0.0422 C.ar    
   9 C9             4.6871     1.4959    -0.0340 C.ar    
  10 N10            3.5238     2.1168    -0.0199 N.ar    
  11 C11            5.9353     2.2963    -0.0412 C.2     
  12 N12            5.8725     3.6426    -0.0335 N.am    
  13 O13            7.0146     1.7386    -0.0541 O.2     
  14 C14            7.1057     4.4335    -0.0406 C.3     
  15 C15            7.5909     4.6115    -1.4816 C.3     
  16 C16            3.6922    -2.1586    -0.0438 C.3     
  17 C17            3.5760    -2.6586    -1.4607 C.ar    
  18 C18            4.7072    -2.8403    -2.2316 C.ar    
  19 C19            2.3314    -2.9467    -2.0030 C.ar    
  20 C20            2.2696    -3.4036    -3.3082 C.ar    
  21 C21            3.4481    -3.5573    -4.0267 C.ar    
  22 N22            4.6164    -3.2771    -3.4732 N.ar    
  23 O23            8.7613     5.4314    -1.4909 O.3     
  24 C24            8.5558     6.7474    -0.9731 C.3     
  25 C25            8.1093     6.6552     0.4884 C.3     
  26 C26            6.8340     5.8108     0.5722 C.3     
  27 O27            3.4011    -4.0047    -5.3067 O.3     
  28 C28            4.6474    -4.1415    -5.9924 C.3     
  29 O29            6.4509     5.6581     1.9404 O.3     
  30 H30           -0.9643     1.9080     0.0170 H       
  31 H31           -0.9302    -0.5493     0.0084 H       
  32 H32            1.1803    -1.7677    -0.0184 H       
  33 H33            1.1059     3.1873     0.0090 H       
  34 H34            5.7363    -0.3889    -0.0533 H       
  35 H35            5.0108     4.0879    -0.0231 H       
  36 H36            7.8713     3.9197     0.5407 H       
  37 H37            7.8266     3.6367    -1.9088 H       
  38 H38            6.8086     5.0879    -2.0724 H       
  39 H39            4.6418    -2.4851     0.3800 H       
  40 H40            2.8717    -2.5595     0.5513 H       
  41 H41            5.6785    -2.6218    -1.8129 H       
  42 H42            1.4315    -2.8178    -1.4198 H       
  43 H43            1.3178    -3.6377    -3.7615 H       
  44 H44            9.4865     7.3114    -1.0339 H       
  45 H45            7.7860     7.2518    -1.5572 H       
  46 H46            8.8956     6.1873     1.0807 H       
  47 H47            7.9095     7.6557     0.8720 H       
  48 H48            6.0334     6.3037     0.0208 H       
  49 H49            5.1447    -3.1727    -6.0388 H       
  50 H50            5.2804    -4.8496    -5.4576 H       
  51 H51            4.4676    -4.5065    -7.0036 H       
  52 H52            6.2699     6.4929     2.3937 H       
@<TRIPOS>BOND
   1    1    2 ar
   2    1    6 ar
   3    1   30 1
   4    2    3 ar
   5    2   31 1
   6    3    4 ar
   7    3   32 1
   8    4    5 ar
   9    4    7 ar
  10    5    6 ar
  11    5   10 ar
  12    6   33 1
  13    7    8 ar
  14    7   16 1
  15    8    9 ar
  16    8   34 1
  17    9   10 ar
  18    9   11 1
  19   11   12 am
  20   11   13 2
  21   12   14 1
  22   12   35 1
  23   14   15 1
  24   14   26 1
  25   14   36 1
  26   15   23 1
  27   15   37 1
  28   15   38 1
  29   16   17 1
  30   16   39 1
  31   16   40 1
  32   17   18 ar
  33   17   19 ar
  34   18   22 ar
  35   18   41 1
  36   19   20 ar
  37   19   42 1
  38   20   21 ar
  39   20   43 1
  40   21   22 ar
  41   21   27 1
  42   23   24 1
  43   24   25 1
  44   24   44 1
  45   24   45 1
  46   25   26 1
  47   25   46 1
  48   25   47 1
  49   26   29 1
  50   26   48 1
  51   27   28 1
  52   28   49 1
  53   28   50 1
  54   28   51 1
  55   29   52 1

#	End of record

