#	Name: ASD01881191
#	Creating user name:	WinNT
#	Creation time:	15. 06. 2019 19:42

#	Modifying user name:	WinNT
#	Modification time:	15. 06. 2019 19:42

#	Program:	/corina/corina34_cracker 3.40 0067  02.08.2006

@<TRIPOS>MOLECULE
ASD01881191
  42   44    0    0    0
SMALL
NO_CHARGES


@<TRIPOS>ATOM
   1 N1            -0.0159     1.3188     0.0093 N.ar    
   2 C2             0.0021    -0.0041     0.0020 C.ar    
   3 N3             1.1383    -0.6823    -0.0120 N.ar    
   4 C4             2.3018    -0.0529    -0.0198 C.ar    
   5 C5             2.3203     1.3332    -0.0129 C.ar    
   6 C6             1.1118     2.0109     0.0022 C.ar    
   7 C7             3.6257     2.0861    -0.0209 C.3     
   8 O8             4.7114     1.1571    -0.0353 O.3     
   9 C9             5.9657     1.6753    -0.0439 C.ar    
  10 C10            7.0684     0.8261    -0.0581 C.ar    
  11 C11            8.3367     1.3503    -0.0673 C.ar    
  12 C12            8.5303     2.7360    -0.0626 C.ar    
  13 C13            7.4189     3.5855    -0.0483 C.ar    
  14 C14            6.1472     3.0524    -0.0444 C.ar    
  15 C15            9.7111     0.7289    -0.0834 C.3     
  16 N16           10.6647     1.8441    -0.0872 N.am    
  17 C17            9.9788     2.9999    -0.0751 C.2     
  18 O18           10.4829     4.1064    -0.0750 O.2     
  19 Cl19           7.6403     5.3073    -0.0416 Cl      
  20 C20            1.0822     3.5176     0.0096 C.3     
  21 F21            1.0600     3.9901    -1.3070 F       
  22 F22           -0.0624     3.9583     0.6826 F       
  23 F23            2.2216     4.0033     0.6602 F       
  24 C24           12.6182     1.6820    -1.5498 C.3     
  25 C25           12.1242     1.7185    -0.1022 C.3     
  26 O26           -1.1713    -0.6808     0.0096 O.3     
  27 C27           -1.0972    -2.1079     0.0012 C.3     
  28 H28            3.2258    -0.6119    -0.0309 H       
  29 H29            3.6757     2.7172    -0.9082 H       
  30 H30            3.6917     2.7082     0.8717 H       
  31 H31            6.9261    -0.2445    -0.0615 H       
  32 H32            5.2891     3.7081    -0.0338 H       
  33 H33            9.8554     0.1154     0.8059 H       
  34 H34            9.8384     0.1240    -0.9812 H       
  35 H35           12.1748     0.8291    -2.0636 H       
  36 H36           12.3275     2.6024    -2.0562 H       
  37 H37           13.7041     1.5885    -1.5609 H       
  38 H38           12.5676     2.5715     0.4116 H       
  39 H39           12.4149     0.7981     0.4042 H       
  40 H40           -0.5568    -2.4488     0.8843 H       
  41 H41           -2.1046    -2.5241     0.0086 H       
  42 H42           -0.5738    -2.4393    -0.8956 H       
@<TRIPOS>BOND
   1    1    2 ar
   2    1    6 ar
   3    2    3 ar
   4    2   26 1
   5    3    4 ar
   6    4    5 ar
   7    4   28 1
   8    5    6 ar
   9    5    7 1
  10    6   20 1
  11    7    8 1
  12    7   29 1
  13    7   30 1
  14    8    9 1
  15    9   10 ar
  16    9   14 ar
  17   10   11 ar
  18   10   31 1
  19   11   12 ar
  20   11   15 1
  21   12   13 ar
  22   12   17 1
  23   13   14 ar
  24   13   19 1
  25   14   32 1
  26   15   16 1
  27   15   33 1
  28   15   34 1
  29   16   17 am
  30   16   25 1
  31   17   18 2
  32   20   21 1
  33   20   22 1
  34   20   23 1
  35   24   25 1
  36   24   35 1
  37   24   36 1
  38   24   37 1
  39   25   38 1
  40   25   39 1
  41   26   27 1
  42   27   40 1
  43   27   41 1
  44   27   42 1

#	End of record

