#	Name: ASD01140012
#	Creating user name:	WinNT
#	Creation time:	15. 06. 2019 18:59

#	Modifying user name:	WinNT
#	Modification time:	15. 06. 2019 18:59

#	Program:	/corina/corina34_cracker 3.40 0067  02.08.2006

@<TRIPOS>MOLECULE
ASD01140012
  57   60    0    0    0
SMALL
NO_CHARGES


@<TRIPOS>ATOM
   1 C1             0.1764     1.6027    -0.5002 C.2     
   2 C2            -0.2339     0.5614     0.5090 C.3     
   3 C3             1.6407     7.2089     3.9659 C.3     
   4 C4             1.8091     8.5515     4.6785 C.3     
   5 C5             2.7670     9.4522     3.8998 C.3     
   6 C6             2.2436     9.6704     2.4775 C.3     
   7 C7             2.1197     8.3131     1.7838 C.3     
   8 C8             1.7135     8.4893     0.3251 C.3     
   9 C9             1.6225     7.1202    -0.3626 C.3     
  10 C10            2.0013     6.0439     0.6538 C.3     
  11 C11            2.1264     4.6775     0.0650 C.3     
  12 C12            2.0309     4.5228    -1.4588 C.3     
  13 C13            1.9619     2.9748    -1.6072 C.3     
  14 C14            1.4065     2.4351    -0.2640 C.3     
  15 C15            1.0341     3.6998     0.5397 C.3     
  16 C16            1.0986     3.5432     2.0359 C.3     
  17 C17            1.1658     4.8997     2.7463 C.3     
  18 C18            1.0018     6.0795     1.8091 C.3     
  19 C19            1.1380     7.4222     2.5400 C.3     
  20 C20           -0.3699     4.0962     0.0815 C.3     
  21 C21           -0.2509     8.0697     2.5821 C.3     
  22 O22            2.8794    10.7145     4.5621 O.3     
  23 O23           -0.4796     1.7652    -1.5009 O.2     
  24 H24           -0.4208     1.0406     1.4700 H       
  25 H25           -1.1418     0.0635     0.1686 H       
  26 H26            0.5641    -0.1730     0.6183 H       
  27 H27            2.6043     6.6962     3.9398 H       
  28 H28            0.9243     6.5982     4.5186 H       
  29 H29            0.8483     9.0460     4.7972 H       
  30 H30            2.2277     8.3707     5.6752 H       
  31 H31            3.7499     8.9813     3.8532 H       
  32 H32            1.2919    10.1875     2.5017 H       
  33 H33            2.9651    10.2835     1.9270 H       
  34 H34            3.1147     7.8440     1.8160 H       
  35 H35            0.7589     9.0035     0.2491 H       
  36 H36            2.4743     9.0881    -0.1877 H       
  37 H37            0.6059     6.9561    -0.7146 H       
  38 H38            2.3149     7.0904    -1.2032 H       
  39 H39            2.9959     6.3136     1.0607 H       
  40 H40            3.1150     4.2628     0.3709 H       
  41 H41            1.1511     5.0016    -1.8683 H       
  42 H42            2.9353     4.9054    -1.9372 H       
  43 H43            1.2912     2.7097    -2.4227 H       
  44 H44            2.9579     2.5746    -1.7884 H       
  45 H45            2.1659     1.8724     0.2682 H       
  46 H46            0.2162     2.9901     2.3875 H       
  47 H47            1.9844     2.9484     2.3037 H       
  48 H48            0.3840     4.9367     3.5172 H       
  49 H49            2.1335     4.9775     3.2619 H       
  50 H50           -0.0182     6.0899     1.4087 H       
  51 H51           -0.4444     3.9834    -1.0001 H       
  52 H52           -1.1051     3.4532     0.5654 H       
  53 H53           -0.5609     5.1345     0.3525 H       
  54 H54           -0.1887     9.0300     3.0939 H       
  55 H55           -0.6114     8.2227     1.5649 H       
  56 H56           -0.9401     7.4167     3.1175 H       
  57 H57            3.2155    10.6554     5.4669 H       
@<TRIPOS>BOND
   1    1    2 1
   2    1   14 1
   3    1   23 2
   4    2   24 1
   5    2   25 1
   6    2   26 1
   7    3    4 1
   8    3   19 1
   9    3   27 1
  10    3   28 1
  11    4    5 1
  12    4   29 1
  13    4   30 1
  14    5    6 1
  15    5   22 1
  16    5   31 1
  17    6    7 1
  18    6   32 1
  19    6   33 1
  20    7    8 1
  21    7   19 1
  22    7   34 1
  23    8    9 1
  24    8   35 1
  25    8   36 1
  26    9   10 1
  27    9   37 1
  28    9   38 1
  29   10   11 1
  30   10   18 1
  31   10   39 1
  32   11   12 1
  33   11   15 1
  34   11   40 1
  35   12   13 1
  36   12   41 1
  37   12   42 1
  38   13   14 1
  39   13   43 1
  40   13   44 1
  41   14   15 1
  42   14   45 1
  43   15   16 1
  44   15   20 1
  45   16   17 1
  46   16   46 1
  47   16   47 1
  48   17   18 1
  49   17   48 1
  50   17   49 1
  51   18   19 1
  52   18   50 1
  53   19   21 1
  54   20   51 1
  55   20   52 1
  56   20   53 1
  57   21   54 1
  58   21   55 1
  59   21   56 1
  60   22   57 1

#	End of record

