#	Name: ASD05143036
#	Creating user name:	WinNT
#	Creation time:	15. 06. 2019 20:57

#	Modifying user name:	WinNT
#	Modification time:	15. 06. 2019 20:57

#	Program:	/corina/corina34_cracker 3.40 0067  02.08.2006

@<TRIPOS>MOLECULE
ASD05143036
 147  150    0    0    0
SMALL
NO_CHARGES


@<TRIPOS>ATOM
   1 C1            -2.1159     5.3810     7.5212 C.2     
   2 C2            -1.6318     4.6409     8.7415 C.3     
   3 N3            -1.2272     5.9184     6.6623 N.am    
   4 O4            -3.3052     5.4886     7.3095 O.2     
   5 C5            -1.6979     6.6378     5.4761 C.3     
   6 C6            -2.5304     5.6951     4.6048 C.3     
   7 C7            -2.5460     7.8083     5.9021 C.2     
   8 C8            -1.6378     4.5733     4.0702 C.3     
   9 C9            -2.4703     3.6306     3.1989 C.3     
  10 N10           -1.6157     2.5564     2.6870 N.pl3   
  11 C11           -2.1474     1.5829     1.8747 C.2     
  12 N12           -3.4812     1.6174     1.5429 N.pl3   
  13 N13           -1.3871     0.6272     1.4193 N.2     
  14 O14           -3.0399     7.8281     7.0096 O.2     
  15 N15           -2.7557     8.8333     5.0524 N.am    
  16 C16           -3.5803     9.9712     5.4666 C.3     
  17 C17           -2.6778    11.1617     5.7964 C.3     
  18 C18           -1.5226    10.6962     6.6849 C.3     
  19 C19           -0.3806    10.2278     5.8206 C.2     
  20 O20           -0.5822     9.4988     4.8726 O.2     
  21 N21            0.8862    10.6399     6.1243 N.am    
  22 C22            1.9505    10.1297     5.2302 C.3     
  23 C23            2.1020    11.0917     4.0502 C.3     
  24 C24            2.7667    10.3627     2.8807 C.3     
  25 C25            3.7260    11.3152     2.1641 C.3     
  26 N26            3.6760    11.0399     0.7141 N.am    
  27 C27            5.1279    11.0964     2.6716 C.2     
  28 N28            5.5142    11.6433     3.8413 N.am    
  29 O29            5.9086    10.4280     2.0276 O.2     
  30 C30            2.8507    11.8290    -0.0266 C.2     
  31 O31            2.2062    12.7100     0.5018 O.2     
  32 C32            2.7481    11.5943    -1.5117 C.3     
  33 N33            1.5340    12.2777    -2.0140 N.am    
  34 C34            3.9846    12.1653    -2.2087 C.3     
  35 C35            0.4812    11.4585    -2.3092 C.2     
  36 O36            0.5727    10.2579    -2.1635 O.2     
  37 C37           -0.7960    12.0749    -2.8190 C.3     
  38 N38           -1.9232    11.1814    -2.4855 N.am    
  39 C39           -1.0081    13.4372    -2.1556 C.3     
  40 C40           -3.0284    11.7689    -1.9499 C.2     
  41 O41           -3.0581    12.9665    -1.7611 O.2     
  42 C42           -4.2145    10.9095    -1.5954 C.3     
  43 C43            3.9381    11.8217    -3.6753 C.2     
  44 C44            3.2410    12.5702    -4.7239 C.ar    
  45 C45            3.4803    11.8742    -5.9227 C.ar    
  46 N46            4.2651    10.7866    -5.6113 N.pl3   
  47 C47            4.5325    10.7749    -4.2694 C.2     
  48 C48            2.4642    13.7304    -4.7350 C.ar    
  49 C49            1.9397    14.1842    -5.9122 C.ar    
  50 C50            2.1725    13.5006    -7.0979 C.ar    
  51 C51            2.9366    12.3546    -7.1098 C.ar    
  52 N52           -4.8016    11.4093    -0.3313 N.am    
  53 C53           -3.7615     9.4595    -1.4130 C.3     
  54 C54           -4.9602     8.5903    -1.1327 C.ar    
  55 C55           -5.9886     8.5132    -2.0532 C.ar    
  56 C56           -7.0881     7.7159    -1.7961 C.ar    
  57 C57           -7.1592     6.9953    -0.6185 C.ar    
  58 C58           -6.1304     7.0717     0.3017 C.ar    
  59 C59           -5.0288     7.8656     0.0425 C.ar    
  60 C60           -4.5173    10.3464     4.3473 C.2     
  61 N61           -3.9991    10.8353     3.1873 N.am    
  62 O62           -5.7158    10.2143     4.4782 O.2     
  63 C63           -4.9657    11.1859     2.1275 C.3     
  64 C64           -5.1874    12.6997     2.1162 C.3     
  65 C65           -4.4095    10.7470     0.7975 C.2     
  66 C66           -5.8521    13.1276     3.4262 C.3     
  67 N67           -6.0650    14.5810     3.4153 N.3     
  68 O68           -3.6280     9.8220     0.7303 O.2     
  69 C69           -1.0197    13.2677    -0.6351 C.3     
  70 C70           -1.3784    14.6011     0.0240 C.3     
  71 N71           -1.3894    14.4388     1.4799 N.pl3   
  72 C72           -1.6875    15.5099     2.2887 C.2     
  73 N73           -1.9752    16.7332     1.7312 N.pl3   
  74 N74           -1.6973    15.3655     3.5841 N.2     
  75 N75           -8.3370     6.1424    -0.3427 N.pl3   
  76 O76           -9.2436     6.0754    -1.1533 O.2     
  77 O77           -8.3996     5.5075     0.6949 O.2     
  78 H78           -1.0387     5.3125     9.3622 H       
  79 H79           -2.4881     4.2807     9.3115 H       
  80 H80           -1.0183     3.7943     8.4333 H       
  81 H81           -0.2759     5.8289     6.8295 H       
  82 H82           -0.8415     6.9981     4.9060 H       
  83 H83           -3.3357     5.2658     5.2008 H       
  84 H84           -2.9539     6.2519     3.7690 H       
  85 H85           -0.8324     5.0025     3.4742 H       
  86 H86           -1.2143     4.0164     4.9060 H       
  87 H87           -3.2757     3.2013     3.7949 H       
  88 H88           -2.8939     4.1874     2.3631 H       
  89 H89           -0.6747     2.5320     2.9212 H       
  90 H90           -4.0470     2.3286     1.8818 H       
  91 H91           -3.8563     0.9306     0.9698 H       
  92 H92           -1.7622    -0.0596     0.8462 H       
  93 H93           -2.3607     8.8175     4.1666 H       
  94 H94           -4.1590     9.6984     6.3490 H       
  95 H95           -2.2792    11.5822     4.8731 H       
  96 H96           -3.2564    11.9217     6.3214 H       
  97 H97           -1.1890    11.5242     7.3104 H       
  98 H98           -1.8594     9.8754     7.3181 H       
  99 H99            1.0752    11.2262     6.8736 H       
 100 H100           2.8912    10.0714     5.7776 H       
 101 H101           1.6765     9.1407     4.8628 H       
 102 H102           1.1188    11.4490     3.7440 H       
 103 H103           2.7198    11.9386     4.3488 H       
 104 H104           3.3216     9.5032     3.2566 H       
 105 H105           2.0018    10.0238     2.1819 H       
 106 H106           3.4246    12.3459     2.3508 H       
 107 H107           4.2038    10.3332     0.3105 H       
 108 H108           4.8898    12.1778     4.3564 H       
 109 H109           6.4166    11.5025     4.1680 H       
 110 H110           2.6744    10.5249    -1.7091 H       
 111 H111           1.4894    13.2402    -2.1258 H       
 112 H112           4.0010    13.2487    -2.0897 H       
 113 H113           4.8828    11.7373    -1.7635 H       
 114 H114          -0.7356    12.1986    -3.9003 H       
 115 H115          -1.8784    10.2248    -2.6399 H       
 116 H116          -0.1990    14.1098    -2.4401 H       
 117 H117          -1.9602    13.8558    -2.4818 H       
 118 H118          -4.9574    10.9656    -2.3910 H       
 119 H119           4.5841    10.1288    -6.2487 H       
 120 H120           5.1272    10.0296    -3.7621 H       
 121 H121           2.2783    14.2670    -3.8164 H       
 122 H122           1.3389    15.0816    -5.9203 H       
 123 H123           1.7509    13.8716    -8.0204 H       
 124 H124           3.1123    11.8301    -8.0375 H       
 125 H125          -5.4213    12.1551    -0.3063 H       
 126 H126          -3.2682     9.1159    -2.3222 H       
 127 H127          -3.0652     9.3989    -0.5766 H       
 128 H128          -5.9331     9.0762    -2.9732 H       
 129 H129          -7.8919     7.6562    -2.5150 H       
 130 H130          -6.1861     6.5091     1.2218 H       
 131 H131          -4.2251     7.9253     0.7614 H       
 132 H132          -3.0437    10.9479     3.0634 H       
 133 H133          -5.9126    10.6794     2.3147 H       
 134 H134          -4.2280    13.2066     2.0130 H       
 135 H135          -5.8312    12.9663     1.2781 H       
 136 H136          -6.8115    12.6206     3.5293 H       
 137 H137          -5.2083    12.8609     4.2643 H       
 138 H138          -6.5032    14.8887     4.2705 H       
 139 H139          -5.1981    15.0723     3.2561 H       
 140 H140          -1.7586    12.5155    -0.3590 H       
 141 H141          -0.0334    12.9493    -0.2975 H       
 142 H142          -0.6394    15.3533    -0.2522 H       
 143 H143          -2.3646    14.9196    -0.3136 H       
 144 H144          -1.1864    13.5757     1.8733 H       
 145 H145          -1.9679    16.8407     0.7672 H       
 146 H146          -2.1855    17.4889     2.3018 H       
 147 H147          -1.9076    16.1212     4.1547 H       
@<TRIPOS>BOND
   1    1    2 1
   2    1    3 am
   3    1    4 2
   4    2   78 1
   5    2   79 1
   6    2   80 1
   7    3    5 1
   8    3   81 1
   9    5    6 1
  10    5    7 1
  11    5   82 1
  12    6    8 1
  13    6   83 1
  14    6   84 1
  15    7   14 2
  16    7   15 am
  17    8    9 1
  18    8   85 1
  19    8   86 1
  20    9   10 1
  21    9   87 1
  22    9   88 1
  23   10   11 1
  24   10   89 1
  25   11   12 1
  26   11   13 2
  27   12   90 1
  28   12   91 1
  29   13   92 1
  30   15   16 1
  31   15   93 1
  32   16   17 1
  33   16   60 1
  34   16   94 1
  35   17   18 1
  36   17   95 1
  37   17   96 1
  38   18   19 1
  39   18   97 1
  40   18   98 1
  41   19   20 2
  42   19   21 am
  43   21   22 1
  44   21   99 1
  45   22   23 1
  46   22  100 1
  47   22  101 1
  48   23   24 1
  49   23  102 1
  50   23  103 1
  51   24   25 1
  52   24  104 1
  53   24  105 1
  54   25   26 1
  55   25   27 1
  56   25  106 1
  57   26   30 am
  58   26  107 1
  59   27   28 am
  60   27   29 2
  61   28  108 1
  62   28  109 1
  63   30   31 2
  64   30   32 1
  65   32   33 1
  66   32   34 1
  67   32  110 1
  68   33   35 am
  69   33  111 1
  70   34   43 1
  71   34  112 1
  72   34  113 1
  73   35   36 2
  74   35   37 1
  75   37   38 1
  76   37   39 1
  77   37  114 1
  78   38   40 am
  79   38  115 1
  80   39   69 1
  81   39  116 1
  82   39  117 1
  83   40   41 2
  84   40   42 1
  85   42   52 1
  86   42   53 1
  87   42  118 1
  88   43   44 1
  89   43   47 2
  90   44   45 ar
  91   44   48 ar
  92   45   46 1
  93   45   51 ar
  94   46   47 1
  95   46  119 1
  96   47  120 1
  97   48   49 ar
  98   48  121 1
  99   49   50 ar
 100   49  122 1
 101   50   51 ar
 102   50  123 1
 103   51  124 1
 104   52   65 am
 105   52  125 1
 106   53   54 1
 107   53  126 1
 108   53  127 1
 109   54   55 ar
 110   54   59 ar
 111   55   56 ar
 112   55  128 1
 113   56   57 ar
 114   56  129 1
 115   57   58 ar
 116   57   75 1
 117   58   59 ar
 118   58  130 1
 119   59  131 1
 120   60   61 am
 121   60   62 2
 122   61   63 1
 123   61  132 1
 124   63   64 1
 125   63   65 1
 126   63  133 1
 127   64   66 1
 128   64  134 1
 129   64  135 1
 130   65   68 2
 131   66   67 1
 132   66  136 1
 133   66  137 1
 134   67  138 1
 135   67  139 1
 136   69   70 1
 137   69  140 1
 138   69  141 1
 139   70   71 1
 140   70  142 1
 141   70  143 1
 142   71   72 1
 143   71  144 1
 144   72   73 1
 145   72   74 2
 146   73  145 1
 147   73  146 1
 148   74  147 1
 149   75   76 2
 150   75   77 2

#	End of record

