#	Name: ASD01208024
#	Creating user name:	WinNT
#	Creation time:	15. 06. 2019 19:09

#	Modifying user name:	WinNT
#	Modification time:	15. 06. 2019 19:09

#	Program:	/corina/corina34_cracker 3.40 0067  02.08.2006

@<TRIPOS>MOLECULE
ASD01208024
  63   66    0    0    0
SMALL
NO_CHARGES


@<TRIPOS>ATOM
   1 C1            -0.0843     1.4339     0.0275 C.ar    
   2 C2             0.0184     0.0511    -0.0131 C.ar    
   3 C3            -1.1247    -0.7353     0.0265 C.ar    
   4 C4            -2.3734    -0.1417     0.1069 C.ar    
   5 C5            -2.4812     1.2493     0.1480 C.ar    
   6 C6            -1.3289     2.0358     0.1137 C.ar    
   7 C7            -3.8114     1.8872     0.2338 C.2     
   8 C8            -4.0512     3.2308     0.2801 C.2     
   9 N9            -5.0130     1.2313     0.2743 N.pl3   
  10 C10           -6.0174     2.1660     0.3518 C.2     
  11 C11           -5.4337     3.4147     0.3564 C.2     
  12 O12            1.0381     2.1991    -0.0116 O.3     
  13 C13            0.8561     3.6143    -0.0908 C.3     
  14 C14            2.0902     4.2521    -0.7320 C.3     
  15 O15            3.2213     4.0636     0.1208 O.3     
  16 C16            0.6609     4.1829     1.3162 C.3     
  17 O17           -1.0185    -2.0894    -0.0140 O.3     
  18 C18           -1.4875    -2.7334    -1.1149 C.ar    
  19 C19           -1.9383    -2.0053    -2.2067 C.ar    
  20 C20           -1.5110    -4.1203    -1.1514 C.ar    
  21 C21           -1.9878    -4.7725    -2.2718 C.ar    
  22 C22           -2.4414    -4.0446    -3.3564 C.ar    
  23 C23           -2.4141    -2.6625    -3.3247 C.ar    
  24 S24           -3.0483    -4.8797    -4.7843 S.o2    
  25 C25           -4.8228    -5.0852    -4.4683 C.3     
  26 O26           -2.8342    -3.9596    -5.8458 O.2     
  27 O27           -2.3887    -6.1381    -4.7612 O.2     
  28 C28           -7.4584     1.8843     0.4145 C.2     
  29 N29           -8.0093     0.6897     0.4064 N.2     
  30 C30           -9.3414     0.8318     0.4762 C.2     
  31 C31           -9.6146     2.1481     0.5285 C.2     
  32 O32           -8.4368     2.8045     0.4957 O.3     
  33 C33          -10.9831     2.7733     0.6143 C.3     
  34 C34            4.4328     4.6250    -0.3881 C.3     
  35 C35          -11.3753     2.9424     2.0835 C.3     
  36 H36            0.9906    -0.4150    -0.0762 H       
  37 H37           -3.2624    -0.7542     0.1374 H       
  38 H38           -1.4079     3.1124     0.1456 H       
  39 H39           -3.3052     4.0116     0.2612 H       
  40 H40           -5.1345     0.2692     0.2518 H       
  41 H41           -5.9505     4.3615     0.4095 H       
  42 H42           -0.0229     3.8342    -0.6967 H       
  43 H43            2.2810     3.7838    -1.6975 H       
  44 H44            1.9158     5.3187    -0.8736 H       
  45 H45            0.5221     5.2623     1.2558 H       
  46 H46           -0.2182     3.7285     1.7730 H       
  47 H47            1.5399     3.9629     1.9221 H       
  48 H48           -1.9175    -0.9258    -2.1822 H       
  49 H49           -1.1566    -4.6893    -0.3046 H       
  50 H50           -2.0061    -5.8520    -2.3009 H       
  51 H51           -2.7692    -2.0962    -4.1730 H       
  52 H52           -5.2851    -4.1063    -4.3422 H       
  53 H53           -5.2847    -5.5994    -5.3111 H       
  54 H54           -4.9646    -5.6736    -3.5618 H       
  55 H55          -10.0663     0.0313     0.4880 H       
  56 H56          -10.9682     3.7485     0.1277 H       
  57 H57          -11.7084     2.1298     0.1164 H       
  58 H58            4.6722     4.1644    -1.3465 H       
  59 H59            4.3070     5.6993    -0.5226 H       
  60 H60            5.2433     4.4396     0.3167 H       
  61 H61          -11.3902     1.9672     2.5701 H       
  62 H62          -10.6500     3.5859     2.5814 H       
  63 H63          -12.3651     3.3946     2.1456 H       
@<TRIPOS>BOND
   1    1    2 ar
   2    1   12 1
   3    1    6 ar
   4    2    3 ar
   5    2   36 1
   6    3    4 ar
   7    3   17 1
   8    4    5 ar
   9    4   37 1
  10    5    6 ar
  11    5    7 1
  12    6   38 1
  13    7    8 2
  14    7    9 1
  15    8   11 1
  16    8   39 1
  17    9   10 1
  18    9   40 1
  19   10   11 2
  20   10   28 1
  21   11   41 1
  22   12   13 1
  23   13   14 1
  24   13   16 1
  25   13   42 1
  26   14   15 1
  27   14   43 1
  28   14   44 1
  29   15   34 1
  30   16   45 1
  31   16   46 1
  32   16   47 1
  33   17   18 1
  34   18   19 ar
  35   18   20 ar
  36   19   23 ar
  37   19   48 1
  38   20   21 ar
  39   20   49 1
  40   21   22 ar
  41   21   50 1
  42   22   23 ar
  43   22   24 1
  44   23   51 1
  45   24   25 1
  46   24   26 2
  47   24   27 2
  48   25   52 1
  49   25   53 1
  50   25   54 1
  51   28   29 2
  52   28   32 1
  53   29   30 1
  54   30   31 2
  55   30   55 1
  56   31   32 1
  57   31   33 1
  58   33   35 1
  59   33   56 1
  60   33   57 1
  61   34   58 1
  62   34   59 1
  63   34   60 1
  64   35   61 1
  65   35   62 1
  66   35   63 1

#	End of record

