#	Name: ASD01810226
#	Creating user name:	WinNT
#	Creation time:	15. 06. 2019 19:24

#	Modifying user name:	WinNT
#	Modification time:	15. 06. 2019 19:24

#	Program:	/corina/corina34_cracker 3.40 0067  02.08.2006

@<TRIPOS>MOLECULE
ASD01810226
  47   50    0    0    0
SMALL
NO_CHARGES


@<TRIPOS>ATOM
   1 C1            -0.0169     1.3838    -0.0455 C.ar    
   2 C2             0.0020    -0.0038    -0.0526 C.ar    
   3 C3             1.1973    -0.6918    -0.0490 C.ar    
   4 C4             2.4035     0.0088    -0.0387 C.ar    
   5 C5             2.3796     1.4130    -0.0321 C.ar    
   6 C6             1.1623     2.0949    -0.0352 C.ar    
   7 N7             3.6055    -0.6664    -0.0346 N.pl3   
   8 C8             4.7891    -0.0407    -0.0244 C.2     
   9 C9             4.8932     1.3358    -0.0167 C.2     
  10 C10            3.6618     2.1419    -0.0212 C.2     
  11 O11            3.6999     3.3598    -0.0151 O.2     
  12 C12            6.2115     1.9855    -0.0041 C.2     
  13 O13            6.3000     3.3306     0.0034 O.3     
  14 O14            7.2221     1.3098    -0.0004 O.2     
  15 C15            3.5869    -2.1313    -0.0413 C.3     
  16 C16            3.4437    -2.6254    -1.4578 C.ar    
  17 N17            2.2417    -2.7297    -1.9905 N.ar    
  18 C18            2.0626    -3.1558    -3.2243 C.ar    
  19 C19            3.1514    -3.5143    -4.0156 C.ar    
  20 C20            4.4384    -3.4149    -3.4798 C.ar    
  21 C21            4.5752    -2.9570    -2.1808 C.ar    
  22 C22            2.9481    -3.9945    -5.4050 C.ar    
  23 C23            1.6619    -4.0903    -5.9293 C.ar    
  24 C24            1.4786    -4.5389    -7.2273 C.ar    
  25 C25            2.5754    -4.8913    -8.0013 C.ar    
  26 C26            3.8527    -4.7967    -7.4809 C.ar    
  27 C27            4.0446    -4.3453    -6.1907 C.ar    
  28 F28            1.2000    -2.0428    -0.0551 F       
  29 O29            0.2246    -4.6343    -7.7425 O.3     
  30 C30            0.1097    -5.1042    -9.0871 C.3     
  31 H31           -0.9608     1.9085    -0.0525 H       
  32 H32           -0.9293    -0.5508    -0.0605 H       
  33 H33            1.1450     3.1747    -0.0305 H       
  34 H34            5.6924    -0.6326    -0.0217 H       
  35 H35            7.1886     3.7120     0.0116 H       
  36 H36            4.5175    -2.5084     0.3827 H       
  37 H37            2.7459    -2.4866     0.5542 H       
  38 H38            1.0625    -3.2280    -3.6256 H       
  39 H39            5.3045    -3.6846    -4.0659 H       
  40 H40            5.5543    -2.8669    -1.7340 H       
  41 H41            0.8093    -3.8161    -5.3257 H       
  42 H42            2.4306    -5.2407    -9.0129 H       
  43 H43            4.7029    -5.0727    -8.0869 H       
  44 H44            5.0437    -4.2725    -5.7869 H       
  45 H45           -0.9416    -5.1324    -9.3735 H       
  46 H46            0.6501    -4.4325    -9.7542 H       
  47 H47            0.5329    -6.1061    -9.1593 H       
@<TRIPOS>BOND
   1    1    2 ar
   2    1    6 ar
   3    1   31 1
   4    2    3 ar
   5    2   32 1
   6    3    4 ar
   7    3   28 1
   8    4    5 ar
   9    4    7 1
  10    5    6 ar
  11    5   10 1
  12    6   33 1
  13    7    8 1
  14    7   15 1
  15    8    9 2
  16    8   34 1
  17    9   10 1
  18    9   12 1
  19   10   11 2
  20   12   13 1
  21   12   14 2
  22   13   35 1
  23   15   16 1
  24   15   36 1
  25   15   37 1
  26   16   17 ar
  27   16   21 ar
  28   17   18 ar
  29   18   19 ar
  30   18   38 1
  31   19   20 ar
  32   19   22 1
  33   20   21 ar
  34   20   39 1
  35   21   40 1
  36   22   23 ar
  37   22   27 ar
  38   23   24 ar
  39   23   41 1
  40   24   25 ar
  41   24   29 1
  42   25   26 ar
  43   25   42 1
  44   26   27 ar
  45   26   43 1
  46   27   44 1
  47   29   30 1
  48   30   45 1
  49   30   46 1
  50   30   47 1

#	End of record

