#	Name: ASD01917413
#	Creating user name:	WinNT
#	Creation time:	15. 06. 2019 20:09

#	Modifying user name:	WinNT
#	Modification time:	15. 06. 2019 20:09

#	Program:	/corina/corina34_cracker 3.40 0067  02.08.2006

@<TRIPOS>MOLECULE
ASD01917413
  37   39    0    0    0
SMALL
NO_CHARGES


@<TRIPOS>ATOM
   1 C1            -0.0168     1.3889     0.0097 C.ar    
   2 C2             0.0021    -0.0041     0.0020 C.ar    
   3 C3             1.2225    -0.6606    -0.0132 C.ar    
   4 C4             2.3820     0.0991    -0.0202 C.ar    
   5 C5             2.2883     1.4815    -0.0119 C.ar    
   6 N6             1.1168     2.0790     0.0026 N.ar    
   7 C7            -1.3134     2.1059     0.0197 C.2     
   8 O8            -2.3544     1.4791     0.0212 O.2     
   9 N9            -1.3382     3.4534     0.0271 N.am    
  10 C10           -2.6202     4.1624     0.0371 C.3     
  11 C11           -3.4933     3.8196    -1.1827 C.3     
  12 C12           -4.8948     4.3953    -0.9703 C.3     
  13 C13           -4.8175     5.9007    -0.7086 C.3     
  14 C14           -3.8874     6.1540     0.4908 C.3     
  15 C15           -4.2675     5.1392     1.5937 C.3     
  16 C16           -3.4559     3.8638     1.3031 C.3     
  17 C17           -2.4671     5.7063     0.0554 C.3     
  18 N18           -3.9395     7.5451     0.9599 N.3     
  19 H19           -0.9212    -0.5643     0.0082 H       
  20 H20            1.2691    -1.7396    -0.0191 H       
  21 H21            3.3489    -0.3819    -0.0317 H       
  22 H22            3.1896     2.0764    -0.0174 H       
  23 H23           -0.5072     3.9538     0.0259 H       
  24 H24           -3.0528     4.2539    -2.0802 H       
  25 H25           -3.5567     2.7371    -1.2931 H       
  26 H26           -5.4976     4.2145    -1.8602 H       
  27 H27           -5.3609     3.9042    -0.1162 H       
  28 H28           -4.4210     6.4043    -1.5902 H       
  29 H29           -5.8133     6.2836    -0.4851 H       
  30 H30           -4.0041     5.5355     2.5744 H       
  31 H31           -5.3348     4.9219     1.5512 H       
  32 H32           -4.1282     3.0257     1.1192 H       
  33 H33           -2.7975     3.6394     2.1423 H       
  34 H34           -1.7188     6.0162     0.7849 H       
  35 H35           -2.2244     6.0868    -0.9368 H       
  36 H36           -4.8753     7.7973     1.2403 H       
  37 H37           -3.2833     7.6982     1.7110 H       
@<TRIPOS>BOND
   1    1    2 ar
   2    1    6 ar
   3    1    7 1
   4    2    3 ar
   5    2   19 1
   6    3    4 ar
   7    3   20 1
   8    4    5 ar
   9    4   21 1
  10    5    6 ar
  11    5   22 1
  12    7    8 2
  13    7    9 am
  14    9   10 1
  15    9   23 1
  16   10   11 1
  17   10   16 1
  18   10   17 1
  19   11   12 1
  20   11   24 1
  21   11   25 1
  22   12   13 1
  23   12   26 1
  24   12   27 1
  25   13   14 1
  26   13   28 1
  27   13   29 1
  28   14   15 1
  29   14   17 1
  30   14   18 1
  31   15   16 1
  32   15   30 1
  33   15   31 1
  34   16   32 1
  35   16   33 1
  36   17   34 1
  37   17   35 1
  38   18   36 1
  39   18   37 1

#	End of record

