#	Name: ASD01001232
#	Creating user name:	WinNT
#	Creation time:	15. 06. 2019 18:55

#	Modifying user name:	WinNT
#	Modification time:	15. 06. 2019 18:55

#	Program:	/corina/corina34_cracker 3.40 0067  02.08.2006

@<TRIPOS>MOLECULE
ASD01001232
  57   61    0    0    0
SMALL
NO_CHARGES


@<TRIPOS>ATOM
   1 C1             0.2645     2.4584     0.8162 C.ar    
   2 C2             0.0508     1.0964     0.9468 C.ar    
   3 C3             1.0765     0.1733     0.8343 C.ar    
   4 C4             2.3513     0.6747     0.5809 C.ar    
   5 C5             2.5644     2.0711     0.4474 C.ar    
   6 C6             1.5098     2.9810     0.5661 C.ar    
   7 N7             3.5601     0.0619     0.4166 N.pl3   
   8 C8             4.5278     1.0024     0.1823 C.2     
   9 C9             3.9808     2.2371     0.1920 C.2     
  10 C10            5.9970     0.7418    -0.0614 C.3     
  11 N11            6.6960     2.0425     0.0126 N.am    
  12 C12            6.0948     3.1813    -0.6802 C.3     
  13 C13            4.7480     3.5166    -0.0239 C.3     
  14 C14            6.5341    -0.1890     0.9951 C.ar    
  15 C15            7.2491    -1.3118     0.6266 C.ar    
  16 C16            7.7437    -2.1682     1.5998 C.ar    
  17 C17            7.5187    -1.8941     2.9409 C.ar    
  18 C18            6.8029    -0.7696     3.3043 C.ar    
  19 C19            6.3156     0.0849     2.3328 C.ar    
  20 O20            8.4471    -3.2739     1.2398 O.3     
  21 C21            7.8349     2.1273     0.7031 C.2     
  22 C22            8.6793     3.3567     0.7916 C.3     
  23 N23            8.1325     4.4524     0.0086 N.am    
  24 C24            6.9798     4.3854    -0.6548 C.2     
  25 O25            6.6259     5.3635    -1.2784 O.2     
  26 O26            8.2100     1.1396     1.2986 O.2     
  27 C27            8.8935     5.7026    -0.0545 C.3     
  28 C28            9.8571     5.6537    -1.2419 C.3     
  29 N29           10.6202     6.9073    -1.3052 N.3     
  30 C30           11.7155     6.8083    -2.2791 C.3     
  31 C31            9.7418     8.0433    -1.6147 C.3     
  32 H32           -0.5755     3.1307     0.9096 H       
  33 H33           -0.9503     0.7421     1.1434 H       
  34 H34            0.8968    -0.8865     0.9386 H       
  35 H35            1.6668     4.0448     0.4655 H       
  36 H36            3.7109    -0.8954     0.4593 H       
  37 H37            6.1364     0.3022    -1.0491 H       
  38 H38            5.9205     2.9082    -1.7210 H       
  39 H39            4.1784     4.1784    -0.6763 H       
  40 H40            4.9205     4.0054     0.9349 H       
  41 H41            7.4227    -1.5233    -0.4182 H       
  42 H42            7.9023    -2.5594     3.7002 H       
  43 H43            6.6274    -0.5557     4.3482 H       
  44 H44            5.7563     0.9634     2.6189 H       
  45 H45            9.4000    -3.1270     1.1656 H       
  46 H46            8.7465     3.6658     1.8346 H       
  47 H47            9.6802     3.1259     0.4270 H       
  48 H48            8.2069     6.5401    -0.1781 H       
  49 H49            9.4599     5.8302     0.8680 H       
  50 H50           10.5438     4.8162    -1.1184 H       
  51 H51            9.2908     5.5261    -2.1645 H       
  52 H52           11.3055     6.5985    -3.2670 H       
  53 H53           12.2641     7.7498    -2.3059 H       
  54 H54           12.3897     6.0031    -1.9871 H       
  55 H55            8.9810     8.1360    -0.8396 H       
  56 H56           10.3322     8.9586    -1.6555 H       
  57 H57            9.2602     7.8782    -2.5785 H       
@<TRIPOS>BOND
   1    1    2 ar
   2    1    6 ar
   3    1   32 1
   4    2    3 ar
   5    2   33 1
   6    3    4 ar
   7    3   34 1
   8    4    5 ar
   9    4    7 1
  10    5    6 ar
  11    5    9 1
  12    6   35 1
  13    7    8 1
  14    7   36 1
  15    8    9 2
  16    8   10 1
  17    9   13 1
  18   10   11 1
  19   10   14 1
  20   10   37 1
  21   11   12 1
  22   11   21 am
  23   12   13 1
  24   12   24 1
  25   12   38 1
  26   13   39 1
  27   13   40 1
  28   14   15 ar
  29   14   19 ar
  30   15   16 ar
  31   15   41 1
  32   16   17 ar
  33   16   20 1
  34   17   18 ar
  35   17   42 1
  36   18   19 ar
  37   18   43 1
  38   19   44 1
  39   20   45 1
  40   21   22 1
  41   21   26 2
  42   22   23 1
  43   22   46 1
  44   22   47 1
  45   23   24 am
  46   23   27 1
  47   24   25 2
  48   27   28 1
  49   27   48 1
  50   27   49 1
  51   28   29 1
  52   28   50 1
  53   28   51 1
  54   29   30 1
  55   29   31 1
  56   30   52 1
  57   30   53 1
  58   30   54 1
  59   31   55 1
  60   31   56 1
  61   31   57 1

#	End of record

