#	Name: ASD01814154
#	Creating user name:	WinNT
#	Creation time:	15. 06. 2019 19:31

#	Modifying user name:	WinNT
#	Modification time:	15. 06. 2019 19:31

#	Program:	/corina/corina34_cracker 3.40 0067  02.08.2006

@<TRIPOS>MOLECULE
ASD01814154
  52   54    0    0    0
SMALL
NO_CHARGES


@<TRIPOS>ATOM
   1 C1            -0.0180     1.4735     0.0101 C.ar    
   2 C2             0.0021    -0.0041     0.0020 C.2     
   3 N3             1.1783    -0.6620    -0.0127 N.am    
   4 O4            -1.0423    -0.6261     0.0086 O.2     
   5 C5             1.1981    -2.1268    -0.0208 C.3     
   6 C6             2.6473    -2.6171    -0.0373 C.3     
   7 N7             2.6673    -4.0860    -0.0454 N.3     
   8 C8             4.0456    -4.5937    -0.0612 C.3     
   9 C9             1.9147    -7.2998    -0.2409 C.2     
  10 O10            1.1948    -8.0486     0.6157 O.3     
  11 O11            1.4708    -7.0398    -1.3418 O.2     
  12 C12           -0.1028    -8.5111     0.1569 C.3     
  13 C13            4.5841    -4.6607     1.3709 C.3     
  14 C14            3.8012    -5.7080     2.1681 C.3     
  15 C15            3.8397    -7.0430     1.4074 C.3     
  16 N16            3.1278    -6.8385     0.1226 N.am    
  17 C17            4.0671    -6.0060    -0.6672 C.3     
  18 C18            5.4556    -6.6229    -0.3812 C.3     
  19 C19            5.3050    -7.3095     0.9926 C.3     
  20 C20           -0.7674    -9.3398     1.2579 C.3     
  21 C21            1.1793     2.1910     0.0026 C.ar    
  22 C22            1.1536     3.5702     0.0103 C.ar    
  23 C23           -0.0552     4.2434     0.0259 C.ar    
  24 C24           -1.2461     3.5400     0.0335 C.ar    
  25 C25           -1.2356     2.1589     0.0196 C.ar    
  26 Cl26          -2.7309     1.2770     0.0287 Cl      
  27 H27            2.0116    -0.1656    -0.0180 H       
  28 H28            0.6978    -2.5019     0.8720 H       
  29 H29            0.6808    -2.4923    -0.9079 H       
  30 H30            3.1477    -2.2421    -0.9301 H       
  31 H31            3.1647    -2.2516     0.8498 H       
  32 H32            2.1536    -4.4589     0.7390 H       
  33 H33            4.6725    -3.9296    -0.6563 H       
  34 H34           -0.7311    -7.6528    -0.0812 H       
  35 H35            0.0248    -9.1262    -0.7339 H       
  36 H36            5.6388    -4.9352     1.3493 H       
  37 H37            4.4734    -3.6859     1.8459 H       
  38 H38            4.2562    -5.8343     3.1504 H       
  39 H39            2.7672    -5.3823     2.2818 H       
  40 H40            3.4124    -7.8593     1.9897 H       
  41 H41            3.8200    -6.0006    -1.7289 H       
  42 H42            5.7101    -7.3564    -1.1463 H       
  43 H43            6.2153    -5.8427    -0.3344 H       
  44 H44            5.9906    -6.8671     1.7153 H       
  45 H45            5.4855    -8.3807     0.9034 H       
  46 H46           -0.1391   -10.1981     1.4960 H       
  47 H47           -0.8950    -8.7248     2.1487 H       
  48 H48           -1.7415    -9.6870     0.9135 H       
  49 H49            2.1239     1.6675    -0.0089 H       
  50 H50            2.0796     4.1261     0.0044 H       
  51 H51           -0.0689     5.3233     0.0326 H       
  52 H52           -2.1860     4.0717     0.0461 H       
@<TRIPOS>BOND
   1    1    2 1
   2    1   21 ar
   3    1   25 ar
   4    2    3 am
   5    2    4 2
   6    3    5 1
   7    3   27 1
   8    5    6 1
   9    5   28 1
  10    5   29 1
  11    6    7 1
  12    6   30 1
  13    6   31 1
  14    7    8 1
  15    7   32 1
  16    8   13 1
  17    8   17 1
  18    8   33 1
  19    9   10 1
  20    9   11 2
  21    9   16 am
  22   10   12 1
  23   12   20 1
  24   12   34 1
  25   12   35 1
  26   13   14 1
  27   13   36 1
  28   13   37 1
  29   14   15 1
  30   14   38 1
  31   14   39 1
  32   15   16 1
  33   15   19 1
  34   15   40 1
  35   16   17 1
  36   17   18 1
  37   17   41 1
  38   18   19 1
  39   18   42 1
  40   18   43 1
  41   19   44 1
  42   19   45 1
  43   20   46 1
  44   20   47 1
  45   20   48 1
  46   21   22 ar
  47   21   49 1
  48   22   23 ar
  49   22   50 1
  50   23   24 ar
  51   23   51 1
  52   24   25 ar
  53   24   52 1
  54   25   26 1

#	End of record

