#	Name: ASD03330643
#	Creating user name:	WinNT
#	Creation time:	15. 06. 2019 20:37

#	Modifying user name:	WinNT
#	Modification time:	15. 06. 2019 20:37

#	Program:	/corina/corina34_cracker 3.40 0067  02.08.2006

@<TRIPOS>MOLECULE
ASD03330643
  57   59    0    0    0
SMALL
NO_CHARGES


@<TRIPOS>ATOM
   1 C1            -0.4274     1.7531    -0.6315 C.2     
   2 N2            -0.4996     0.4359    -0.9662 N.pl3   
   3 C3             0.8920     2.0836    -0.5865 C.2     
   4 N4             1.6061     0.9747    -0.9094 N.2     
   5 C5             0.7756    -0.0143    -1.1435 C.2     
   6 C6             1.1589    -1.3887    -1.5346 C.2     
   7 C7             1.4458     3.4064    -0.2489 C.2     
   8 O8             0.6988     4.3268     0.0235 O.2     
   9 C9             3.3307     4.9121     0.0935 C.3     
  10 N10            2.7800     3.5966    -0.2421 N.am    
  11 C11            3.4520     5.0415     1.6132 C.3     
  12 C12            4.3217     3.9049     2.1541 C.3     
  13 C13            4.0952     6.3855     1.9608 C.3     
  14 C14            2.0605     4.9636     2.2444 C.3     
  15 C15            4.6928     5.0614    -0.5337 C.2     
  16 N16            5.2344     6.2862    -0.6851 N.am    
  17 O17            5.3016     4.0793    -0.9022 O.2     
  18 C18            6.5111     6.4410    -1.3867 C.3     
  19 C19           -1.7356    -0.3416    -1.0931 C.3     
  20 C20           -2.7464     0.4539    -1.9250 C.3     
  21 C21           -3.5533     1.3740    -1.0147 C.3     
  22 N22           -2.7375     1.8613     0.0992 N.3     
  23 C23           -1.6020     2.6629    -0.3807 C.3     
  24 C24           -3.5526     2.6226     1.0552 C.3     
  25 C25            2.3611    -1.7748    -2.0580 C.2     
  26 N26            2.3033    -3.1030    -2.2737 N.pl3   
  27 N27            1.0400    -3.5579    -1.8775 N.2     
  28 C28            0.3529    -2.5413    -1.4298 C.2     
  29 H29            2.6687     5.6906    -0.2857 H       
  30 H30            3.3757     2.8626    -0.4594 H       
  31 H31            5.3131     3.9604     1.7044 H       
  32 H32            4.4082     3.9971     3.2367 H       
  33 H33            3.8636     2.9474     1.9064 H       
  34 H34            3.4782     7.1952     1.5711 H       
  35 H35            4.1769     6.4800     3.0437 H       
  36 H36            5.0886     6.4390     1.5154 H       
  37 H37            1.6023     4.0061     1.9968 H       
  38 H38            2.1469     5.0558     3.3271 H       
  39 H39            1.4409     5.7733     1.8591 H       
  40 H40            4.7788     7.0653    -0.3295 H       
  41 H41            7.2829     5.8743    -0.8659 H       
  42 H42            6.4127     6.0686    -2.4064 H       
  43 H43            6.7875     7.4951    -1.4099 H       
  44 H44           -1.5211    -1.2885    -1.5885 H       
  45 H45           -2.1490    -0.5328    -0.1029 H       
  46 H46           -2.2155     1.0516    -2.6659 H       
  47 H47           -3.4206    -0.2359    -2.4327 H       
  48 H48           -3.9125     2.2248    -1.5938 H       
  49 H49           -4.4081     0.8256    -0.6188 H       
  50 H50           -1.3347     3.4038     0.3727 H       
  51 H51           -1.8772     3.1666    -1.3073 H       
  52 H52           -4.3397     1.9818     1.4526 H       
  53 H53           -2.9220     2.9727     1.8724 H       
  54 H54           -4.0010     3.4780     0.5500 H       
  55 H55            3.2043    -1.1315    -2.2618 H       
  56 H56            3.0148    -3.6505    -2.6410 H       
  57 H57           -0.6581    -2.5761    -1.0517 H       
@<TRIPOS>BOND
   1    1    2 1
   2    1    3 2
   3    1   23 1
   4    2   19 1
   5    2    5 1
   6    3    4 1
   7    3    7 1
   8    4    5 2
   9    5    6 1
  10    6   25 2
  11    6   28 1
  12    7    8 2
  13    7   10 am
  14    9   10 1
  15    9   11 1
  16    9   15 1
  17    9   29 1
  18   10   30 1
  19   11   12 1
  20   11   13 1
  21   11   14 1
  22   12   31 1
  23   12   32 1
  24   12   33 1
  25   13   34 1
  26   13   35 1
  27   13   36 1
  28   14   37 1
  29   14   38 1
  30   14   39 1
  31   15   16 am
  32   15   17 2
  33   16   18 1
  34   16   40 1
  35   18   41 1
  36   18   42 1
  37   18   43 1
  38   19   20 1
  39   19   44 1
  40   19   45 1
  41   20   21 1
  42   20   46 1
  43   20   47 1
  44   21   22 1
  45   21   48 1
  46   21   49 1
  47   22   23 1
  48   22   24 1
  49   23   50 1
  50   23   51 1
  51   24   52 1
  52   24   53 1
  53   24   54 1
  54   25   26 1
  55   25   55 1
  56   26   27 1
  57   26   56 1
  58   27   28 2
  59   28   57 1

#	End of record

