#	Name: ASD09116260
#	Creating user name:	WinNT
#	Creation time:	15. 06. 2019 21:21

#	Modifying user name:	WinNT
#	Modification time:	15. 06. 2019 21:21

#	Program:	/corina/corina34_cracker 3.40 0067  02.08.2006

@<TRIPOS>MOLECULE
ASD09116260
  82   89    0    0    0
SMALL
NO_CHARGES


@<TRIPOS>ATOM
   1 N1            -0.7101     4.8292    -0.0980 N.pl3   
   2 N2            -1.1195     6.0368     0.4900 N.2     
   3 C3             0.6432     4.8257    -0.0614 C.2     
   4 N4             1.0359     5.9464     0.5061 N.2     
   5 C5            -0.0316     6.6802     0.8402 C.2     
   6 N6             1.4674     3.8218    -0.5360 N.pl3   
   7 C7             2.8542     3.9966    -0.5341 C.ar    
   8 C8             3.6935     2.8994    -0.3896 C.ar    
   9 C9             5.0643     3.0739    -0.3885 C.ar    
  10 C10            5.5946     4.3445    -0.5317 C.ar    
  11 C11            4.7684     5.4301    -0.6736 C.ar    
  12 C12            3.3958     5.2682    -0.6823 C.ar    
  13 C13           -1.5353     3.8278    -0.6128 C.ar    
  14 N14           -1.0782     3.0085    -1.5480 N.ar    
  15 N15           -1.7996     2.0770    -2.0621 N.ar    
  16 C16           -3.0527     1.8815    -1.6840 C.ar    
  17 C17           -3.6138     2.6845    -0.6870 C.ar    
  18 C18           -2.8415     3.6859    -0.1376 C.ar    
  19 C19           -3.9031     0.8443    -2.3128 C.ar    
  20 C20           -5.1770     1.1972    -2.7610 C.ar    
  21 C21           -5.6300     2.6268    -2.6457 C.3     
  22 C22           -6.0338     2.9692    -1.2142 C.3     
  23 C23           -5.0152     2.4201    -0.2188 C.3     
  24 C24           -3.4527    -0.4634    -2.4559 C.ar    
  25 C25           -4.2790    -1.4126    -3.0258 C.ar    
  26 C26           -5.5486    -1.0637    -3.4492 C.ar    
  27 C27           -5.9974     0.2390    -3.3166 C.ar    
  28 N28            0.0063     7.9286     1.4606 N.pl3   
  29 C29            7.0982     4.5279    -0.5311 C.3     
  30 C30            7.5015     5.2210     0.7727 C.3     
  31 C31            7.3867     6.7270     0.6436 C.3     
  32 C32            5.9658     7.2383     0.5103 C.3     
  33 C33            5.3562     6.8175    -0.8289 C.3     
  34 N34            7.9945     7.3440     1.8301 N.3     
  35 C35            7.4173     6.7937     3.0638 C.3     
  36 C36            9.4549     7.1859     1.8161 C.3     
  37 C37           10.0675     7.9045     0.5752 C.3     
  38 C38           10.0860     7.9007     3.0327 C.3     
  39 C39           11.0205     8.9839     2.4124 C.3     
  40 C40           11.5613     7.4578     0.5635 C.3     
  41 C41           12.1925     8.1726     1.7802 C.3     
  42 C42           10.2064     9.3675     1.1265 C.3     
  43 H43            1.0831     2.9963    -0.8703 H       
  44 H44            3.2748     1.9101    -0.2779 H       
  45 H45            5.7192     2.2225    -0.2760 H       
  46 H46            2.7482     6.1252    -0.7947 H       
  47 H47           -3.2342     4.3415     0.6256 H       
  48 H48           -4.8171     3.2844    -2.9538 H       
  49 H49           -6.4839     2.7846    -3.3045 H       
  50 H50           -6.0922     4.0523    -1.1071 H       
  51 H51           -7.0113     2.5353    -1.0035 H       
  52 H52           -5.1610     1.3450    -0.1131 H       
  53 H53           -5.1661     2.8983     0.7490 H       
  54 H54           -2.4618    -0.7355    -2.1237 H       
  55 H55           -3.9328    -2.4291    -3.1411 H       
  56 H56           -6.1933    -1.8119    -3.8861 H       
  57 H57           -6.9902     0.5046    -3.6485 H       
  58 H58            0.8590     8.3327     1.6854 H       
  59 H59           -0.8199     8.3927     1.6673 H       
  60 H60            7.5859     3.5552    -0.5949 H       
  61 H61            7.3924     5.1449    -1.3801 H       
  62 H62            6.8492     4.8796     1.5765 H       
  63 H63            8.5320     4.9596     1.0134 H       
  64 H64            7.9515     7.0429    -0.2335 H       
  65 H65            5.3617     6.8329     1.3219 H       
  66 H66            5.9691     8.3263     0.5763 H       
  67 H67            6.1307     6.8034    -1.5957 H       
  68 H68            4.5706     7.5188    -1.1103 H       
  69 H69            7.6852     5.7408     3.1521 H       
  70 H70            7.8062     7.3408     3.9225 H       
  71 H71            6.3321     6.8910     3.0321 H       
  72 H72            9.7219     6.1292     1.8134 H       
  73 H73            9.5258     7.7809    -0.3626 H       
  74 H74            9.3127     8.3695     3.6413 H       
  75 H75           10.6651     7.1958     3.6293 H       
  76 H76           11.3089     9.8003     3.0746 H       
  77 H77           11.6355     6.3764     0.6776 H       
  78 H78           12.0463     7.7776    -0.3588 H       
  79 H79           12.9878     8.8438     1.4560 H       
  80 H80           12.5769     7.4426     2.4924 H       
  81 H81           10.7807    10.0049     0.4541 H       
  82 H82            9.2389     9.8058     1.3709 H       
@<TRIPOS>BOND
   1    1    2 1
   2    1    3 1
   3    1   13 1
   4    2    5 2
   5    3    4 2
   6    3    6 1
   7    4    5 1
   8    5   28 1
   9    6    7 1
  10    6   43 1
  11    7    8 ar
  12    7   12 ar
  13    8    9 ar
  14    8   44 1
  15    9   10 ar
  16    9   45 1
  17   10   11 ar
  18   10   29 1
  19   11   12 ar
  20   11   33 1
  21   12   46 1
  22   13   14 ar
  23   13   18 ar
  24   14   15 ar
  25   15   16 ar
  26   16   17 ar
  27   16   19 1
  28   17   18 ar
  29   17   23 1
  30   18   47 1
  31   19   20 ar
  32   19   24 ar
  33   20   21 1
  34   20   27 ar
  35   21   22 1
  36   21   48 1
  37   21   49 1
  38   22   23 1
  39   22   50 1
  40   22   51 1
  41   23   52 1
  42   23   53 1
  43   24   25 ar
  44   24   54 1
  45   25   26 ar
  46   25   55 1
  47   26   27 ar
  48   26   56 1
  49   27   57 1
  50   28   58 1
  51   28   59 1
  52   29   30 1
  53   29   60 1
  54   29   61 1
  55   30   31 1
  56   30   62 1
  57   30   63 1
  58   31   32 1
  59   31   34 1
  60   31   64 1
  61   32   33 1
  62   32   65 1
  63   32   66 1
  64   33   67 1
  65   33   68 1
  66   34   35 1
  67   34   36 1
  68   35   69 1
  69   35   70 1
  70   35   71 1
  71   36   37 1
  72   36   38 1
  73   36   72 1
  74   37   40 1
  75   37   42 1
  76   37   73 1
  77   38   39 1
  78   38   74 1
  79   38   75 1
  80   39   41 1
  81   39   42 1
  82   39   76 1
  83   40   41 1
  84   40   77 1
  85   40   78 1
  86   41   79 1
  87   41   80 1
  88   42   81 1
  89   42   82 1

#	End of record

