#	Name: ASD04590454
#	Creating user name:	WinNT
#	Creation time:	15. 06. 2019 20:50

#	Modifying user name:	WinNT
#	Modification time:	15. 06. 2019 20:50

#	Program:	/corina/corina34_cracker 3.40 0067  02.08.2006

@<TRIPOS>MOLECULE
ASD04590454
  55   59    0    0    0
SMALL
NO_CHARGES


@<TRIPOS>ATOM
   1 C1            -0.0168     1.3876     0.0097 C.ar    
   2 C2             0.0021    -0.0041     0.0020 C.ar    
   3 C3             2.4052     0.0260    -0.0207 C.ar    
   4 C4             2.3773     1.4317    -0.0129 C.ar    
   5 C5             1.1626     2.1017     0.0022 C.ar    
   6 N6             3.7079    -0.3491    -0.0359 N.2     
   7 C7             4.4734     0.7155    -0.0379 C.2     
   8 N8             3.6984     1.8435    -0.0241 N.pl3   
   9 C9             5.9508     0.6997    -0.0529 C.2     
  10 C10            6.7697    -0.4530    -0.0679 C.2     
  11 C11            8.0614    -0.0422    -0.0794 C.2     
  12 N12            8.0664     1.3167    -0.0721 N.pl3   
  13 N13            6.7373     1.7581    -0.0605 N.2     
  14 N14            6.3245    -1.7849    -0.0703 N.am    
  15 C15            7.2178    -2.7940    -0.0853 C.2     
  16 O16            8.4094    -2.5511    -0.0966 O.2     
  17 C17            6.7501    -4.1931    -0.0879 C.ar    
  18 C18            1.2021    -0.6867    -0.0131 C.ar    
  19 C19            6.5399    -4.8669     1.1201 C.ar    
  20 O20           -1.1686    -0.6957     0.0099 O.3     
  21 C21           -2.3747     0.0705     0.0260 C.3     
  22 C22            6.1011    -6.1776     1.1085 C.ar    
  23 C23            5.8704    -6.8231    -0.0927 C.ar    
  24 C24            6.0761    -6.1647    -1.2915 C.ar    
  25 C25            6.5086    -4.8520    -1.2983 C.ar    
  26 F26            6.7085    -4.2105    -2.4704 F       
  27 F27            6.7655    -4.2384     2.2946 F       
  28 C28           -3.5787    -0.8736     0.0329 C.3     
  29 C29           -4.8671    -0.0588     0.1758 C.3     
  30 C30           -6.0705    -1.0026     0.1208 C.3     
  31 N31           -6.0678    -1.7275    -1.1562 N.3     
  32 C32           -4.8620    -2.5541    -1.2950 C.3     
  33 C33           -3.6225    -1.6566    -1.2823 C.3     
  34 H34           -0.9612     1.9114     0.0170 H       
  35 H35            1.1409     3.1815     0.0079 H       
  36 H36            4.0157     2.7601    -0.0227 H       
  37 H37            8.9319    -0.6813    -0.0915 H       
  38 H38            8.8540     1.8829    -0.0771 H       
  39 H39            5.3741    -1.9786    -0.0613 H       
  40 H40            1.2115    -1.7666    -0.0186 H       
  41 H41           -2.3970     0.6943     0.9196 H       
  42 H42           -2.4147     0.7038    -0.8603 H       
  43 H43            5.9383    -6.6992     2.0400 H       
  44 H44            5.5280    -7.8474    -0.0946 H       
  45 H45            5.8941    -6.6765    -2.2250 H       
  46 H46           -3.4922    -1.5680     0.8686 H       
  47 H47           -4.8608     0.4676     1.1302 H       
  48 H48           -4.9333     0.6631    -0.6382 H       
  49 H49           -6.0109    -1.7155     0.9432 H       
  50 H50           -6.9902    -0.4240     0.2080 H       
  51 H51           -6.9023    -2.2856    -1.2570 H       
  52 H52           -4.8079    -3.2597    -0.4659 H       
  53 H53           -4.9038    -3.1023    -2.2361 H       
  54 H54           -3.6691    -0.9598    -2.1192 H       
  55 H55           -2.7269    -2.2717    -1.3696 H       
@<TRIPOS>BOND
   1    1    2 ar
   2    1    5 ar
   3    1   34 1
   4    2   18 ar
   5    2   20 1
   6    3    4 ar
   7    3    6 1
   8    3   18 ar
   9    4    5 ar
  10    4    8 1
  11    5   35 1
  12    6    7 2
  13    7    8 1
  14    7    9 1
  15    8   36 1
  16    9   10 1
  17    9   13 2
  18   10   11 2
  19   10   14 1
  20   11   12 1
  21   11   37 1
  22   12   13 1
  23   12   38 1
  24   14   15 am
  25   14   39 1
  26   15   16 2
  27   15   17 1
  28   17   19 ar
  29   17   25 ar
  30   18   40 1
  31   19   22 ar
  32   19   27 1
  33   20   21 1
  34   21   28 1
  35   21   41 1
  36   21   42 1
  37   22   23 ar
  38   22   43 1
  39   23   24 ar
  40   23   44 1
  41   24   25 ar
  42   24   45 1
  43   25   26 1
  44   28   29 1
  45   28   33 1
  46   28   46 1
  47   29   30 1
  48   29   47 1
  49   29   48 1
  50   30   31 1
  51   30   49 1
  52   30   50 1
  53   31   32 1
  54   31   51 1
  55   32   33 1
  56   32   52 1
  57   32   53 1
  58   33   54 1
  59   33   55 1

#	End of record

