#	Name: ASD02408114
#	Creating user name:	WinNT
#	Creation time:	15. 06. 2019 20:21

#	Modifying user name:	WinNT
#	Modification time:	15. 06. 2019 20:21

#	Program:	/corina/corina34_cracker 3.40 0067  02.08.2006

@<TRIPOS>MOLECULE
ASD02408114
  37   39    0    0    0
SMALL
NO_CHARGES


@<TRIPOS>ATOM
   1 C1             0.5775     0.5971    -0.0811 C.2     
   2 C2             0.8373    -0.6928    -0.3001 C.2     
   3 C3             1.6562     1.6493    -0.0620 C.3     
   4 C4             1.8438     2.2017    -1.4514 C.2     
   5 N5             2.7683     3.1609    -1.6515 N.am    
   6 N6             1.1088     1.7311    -2.4221 N.2     
   7 C7             1.2321     2.1838    -3.6764 C.2     
   8 C8             2.1739     3.1881    -3.9550 C.2     
   9 C9             2.9631     3.6779    -2.8828 C.2     
  10 N10            0.4467     1.6713    -4.6796 N.pl3   
  11 C11            1.0083     1.4141    -6.0127 C.3     
  12 O12            3.7952     4.5490    -3.0686 O.2     
  13 S13           -0.6606    -1.6132    -0.2483 S.3     
  14 C14           -1.5826    -0.1512     0.0774 C.2     
  15 C15           -0.7586     0.8968     0.1213 C.2     
  16 C16            0.7164    -0.0394    -6.3986 C.3     
  17 C17           -0.7877    -0.2999    -6.2893 C.3     
  18 C18           -1.2408    -0.0837    -4.8436 C.3     
  19 C19           -0.9697     1.3640    -4.4384 C.3     
  20 C20            2.3362     3.6985    -5.2830 C.1     
  21 N21            2.4649     4.1035    -6.3365 N.1     
  22 H22            1.8174    -1.1084    -0.4817 H       
  23 H23            1.3664     2.4545     0.6131 H       
  24 H24            2.5906     1.2055     0.2818 H       
  25 H25            3.2976     3.4826    -0.9050 H       
  26 H26            0.5481     2.0843    -6.7386 H       
  27 H27            2.0858     1.5776    -5.9930 H       
  28 H28           -2.6528    -0.1079     0.2159 H       
  29 H29           -1.1065     1.9019     0.3087 H       
  30 H30            1.0427    -0.2163    -7.4235 H       
  31 H31            1.2515    -0.7091    -5.7253 H       
  32 H32           -1.3237     0.3869    -6.9444 H       
  33 H33           -1.0010    -1.3265    -6.5870 H       
  34 H34           -2.3076    -0.2920    -4.7617 H       
  35 H35           -0.6873    -0.7529    -4.1849 H       
  36 H36           -1.1987     1.4966    -3.3810 H       
  37 H37           -1.5899     2.0328    -5.0353 H       
@<TRIPOS>BOND
   1    1    2 2
   2    1    3 1
   3    1   15 1
   4    2   13 1
   5    2   22 1
   6    3    4 1
   7    3   23 1
   8    3   24 1
   9    4    5 1
  10    4    6 2
  11    5    9 am
  12    5   25 1
  13    6    7 1
  14    7    8 2
  15    7   10 1
  16    8    9 1
  17    8   20 1
  18    9   12 2
  19   10   11 1
  20   10   19 1
  21   11   16 1
  22   11   26 1
  23   11   27 1
  24   13   14 1
  25   14   15 2
  26   14   28 1
  27   15   29 1
  28   16   17 1
  29   16   30 1
  30   16   31 1
  31   17   18 1
  32   17   32 1
  33   17   33 1
  34   18   19 1
  35   18   34 1
  36   18   35 1
  37   19   36 1
  38   19   37 1
  39   20   21 3

#	End of record

