#	Name: ASD08150411
#	Creating user name:	WinNT
#	Creation time:	15. 06. 2019 21:16

#	Modifying user name:	WinNT
#	Modification time:	15. 06. 2019 21:16

#	Program:	/corina/corina34_cracker 3.40 0067  02.08.2006

@<TRIPOS>MOLECULE
ASD08150411
  43   47    0    0    0
SMALL
NO_CHARGES


@<TRIPOS>ATOM
   1 N1             1.0090     3.1207    -1.6854 N.am    
   2 C2             1.4502     2.5156    -2.8053 C.2     
   3 C3             2.6574     1.7877    -2.8070 C.2     
   4 C4             3.3959     1.6870    -1.6726 C.2     
   5 C5             2.9352     2.3226    -0.4927 C.ar    
   6 C6             3.6631     2.2497     0.7105 C.ar    
   7 N7             3.2357     2.8371     1.7974 N.ar    
   8 C8             2.0914     3.5371     1.8323 C.ar    
   9 C9             1.2948     3.6637     0.6679 C.ar    
  10 C10            1.7289     3.0391    -0.5248 C.ar    
  11 C11            0.1037     4.3951     0.7150 C.ar    
  12 C12           -0.2849     4.9894     1.9039 C.ar    
  13 C13            0.5084     4.8603     3.0518 C.ar    
  14 C14            1.6692     4.1520     3.0223 C.ar    
  15 O15            0.7963     2.5983    -3.8311 O.2     
  16 C16           -1.5478     5.7675     1.9625 C.2     
  17 C17           -0.1908     3.8424    -1.7109 C.ar    
  18 C18           -1.7604     6.9067     2.6828 C.2     
  19 C19           -0.1788     5.2006    -1.9988 C.ar    
  20 C20           -1.3651     5.9112    -2.0238 C.ar    
  21 C21           -2.5648     5.2671    -1.7610 C.ar    
  22 C22           -2.5768     3.9129    -1.4738 C.ar    
  23 C23           -1.3946     3.1992    -1.4537 C.ar    
  24 F24           -3.7231     5.9622    -1.7847 F       
  25 F25           -1.3550     7.2328    -2.3039 F       
  26 N26           -3.0325     7.2965     2.4636 N.pl3   
  27 N27           -3.6261     6.3800     1.5872 N.2     
  28 C28           -2.7428     5.4675     1.2797 C.2     
  29 C29           -3.6816     8.4752     3.0428 C.3     
  30 H30            2.9955     1.3084    -3.7138 H       
  31 H31            4.3213     1.1300    -1.6692 H       
  32 H32            4.5913     1.6982     0.7359 H       
  33 H33           -0.5082     4.4959    -0.1691 H       
  34 H34            0.1940     5.3295     3.9723 H       
  35 H35            2.2680     4.0621     3.9166 H       
  36 H36           -1.0404     7.4055     3.3147 H       
  37 H37            0.7559     5.7017    -2.2028 H       
  38 H38           -3.5121     3.4131    -1.2690 H       
  39 H39           -1.4053     2.1427    -1.2299 H       
  40 H40           -2.9033     4.6258     0.6223 H       
  41 H41           -3.5316     9.3321     2.3861 H       
  42 H42           -4.7491     8.2846     3.1534 H       
  43 H43           -3.2470     8.6859     4.0200 H       
@<TRIPOS>BOND
   1    1    2 am
   2    1   10 1
   3    1   17 1
   4    2    3 1
   5    2   15 2
   6    3    4 2
   7    3   30 1
   8    4    5 1
   9    4   31 1
  10    5    6 ar
  11    5   10 ar
  12    6    7 ar
  13    6   32 1
  14    7    8 ar
  15    8    9 ar
  16    8   14 ar
  17    9   10 ar
  18    9   11 ar
  19   11   12 ar
  20   11   33 1
  21   12   13 ar
  22   12   16 1
  23   13   14 ar
  24   13   34 1
  25   14   35 1
  26   16   18 2
  27   16   28 1
  28   17   19 ar
  29   17   23 ar
  30   18   26 1
  31   18   36 1
  32   19   20 ar
  33   19   37 1
  34   20   21 ar
  35   20   25 1
  36   21   22 ar
  37   21   24 1
  38   22   23 ar
  39   22   38 1
  40   23   39 1
  41   26   27 1
  42   26   29 1
  43   27   28 2
  44   28   40 1
  45   29   41 1
  46   29   42 1
  47   29   43 1

#	End of record

