#	Name: ASD00310232
#	Creating user name:	WinNT
#	Creation time:	15. 06. 2019 18:34

#	Modifying user name:	WinNT
#	Modification time:	15. 06. 2019 18:34

#	Program:	/corina/corina34_cracker 3.40 0067  02.08.2006

@<TRIPOS>MOLECULE
ASD00310232
  23   23    0    0    0
SMALL
NO_CHARGES


@<TRIPOS>ATOM
   1 C1            -0.0187     1.5258     0.0104 C.3     
   2 C2             0.0021    -0.0041     0.0020 C.3     
   3 C3            -1.4333    -0.5336     0.0129 C.3     
   4 O4             1.3220     2.0204     0.0003 O.3     
   5 O5            -1.4139    -1.9625     0.0050 O.3     
   6 C6            -2.6164    -2.5960     0.0131 C.ar    
   7 C7            -2.6713    -3.9821     0.0062 C.ar    
   8 C8            -3.8945    -4.6240     0.0144 C.ar    
   9 C9            -5.0642    -3.8855     0.0290 C.ar    
  10 C10           -5.0117    -2.5030     0.0359 C.ar    
  11 C11           -3.7905    -1.8573     0.0340 C.ar    
  12 Br12          -6.7373    -4.7668     0.0389 Br      
  13 H13           -0.5459     1.8868    -0.8726 H       
  14 H14           -0.5289     1.8773     0.9072 H       
  15 H15            0.5123    -0.3556    -0.8948 H       
  16 H16            0.5293    -0.3651     0.8851 H       
  17 H17           -1.9435    -0.1821     0.9097 H       
  18 H18           -1.9605    -0.1726    -0.8702 H       
  19 H19            1.3852     2.9853     0.0049 H       
  20 H20           -1.7584    -4.5590    -0.0060 H       
  21 H21           -3.9377    -5.7031     0.0090 H       
  22 H22           -5.9260    -1.9283     0.0473 H       
  23 H23           -3.7498    -0.7781     0.0439 H       
@<TRIPOS>BOND
   1    1    2 1
   2    1    4 1
   3    1   13 1
   4    1   14 1
   5    2    3 1
   6    2   15 1
   7    2   16 1
   8    3    5 1
   9    3   17 1
  10    3   18 1
  11    4   19 1
  12    5    6 1
  13    6    7 ar
  14    6   11 ar
  15    7    8 ar
  16    7   20 1
  17    8    9 ar
  18    8   21 1
  19    9   10 ar
  20    9   12 1
  21   10   11 ar
  22   10   22 1
  23   11   23 1

#	End of record

