#	Name: ASD03082311
#	Creating user name:	WinNT
#	Creation time:	15. 06. 2019 20:27

#	Modifying user name:	WinNT
#	Modification time:	15. 06. 2019 20:27

#	Program:	/corina/corina34_cracker 3.40 0067  02.08.2006

@<TRIPOS>MOLECULE
ASD03082311
  53   56    0    0    0
SMALL
NO_CHARGES


@<TRIPOS>ATOM
   1 N1            -0.0745     1.2068     0.3492 N.pl3   
   2 N2            -0.0463    -0.1570     0.0161 N.2     
   3 C3             1.1808    -0.5763     0.2218 C.2     
   4 N4             1.9208     0.4428     0.6630 N.2     
   5 C5             1.1775     1.5285     0.7459 C.2     
   6 N6             1.6377    -1.8788     0.0131 N.pl3   
   7 C7             2.9961    -2.1779     0.1713 C.ar    
   8 C8             3.9109    -1.1592     0.3963 C.ar    
   9 C9             5.2523    -1.4575     0.5527 C.ar    
  10 C10            5.6847    -2.7702     0.4849 C.ar    
  11 C11            4.7779    -3.7898     0.2610 C.ar    
  12 C12            3.4321    -3.4996     0.1091 C.ar    
  13 C13            1.6326     2.8625     1.1936 C.ar    
  14 C14           -1.2298     2.1047     0.2754 C.3     
  15 C15            2.9928     3.1723     1.1982 C.ar    
  16 C16            3.4157     4.4217     1.6176 C.ar    
  17 C17            2.4832     5.3682     2.0311 C.ar    
  18 C18            1.1293     5.0583     2.0273 C.ar    
  19 C19            0.7021     3.8168     1.6071 C.ar    
  20 C20           -1.9627     2.0895     1.5921 C.2     
  21 N21           -3.0660     2.8456     1.7579 N.am    
  22 C22           -3.7785     2.8309     3.0379 C.3     
  23 O23           -1.5597     1.3969     2.5025 O.2     
  24 C24           -3.5528     3.6822     0.6582 C.3     
  25 Cl25           6.3961    -0.1822     0.8341 Cl      
  26 O26            4.7469     4.7066     1.6240 O.3     
  27 C27            5.1089     6.0899     1.6950 C.3     
  28 C28            4.2613     6.7528     2.7892 C.3     
  29 O29            2.8812     6.6040     2.4390 O.3     
  30 O30            2.5388    -4.5025    -0.1061 O.3     
  31 C31            3.0572    -5.8332    -0.1579 C.3     
  32 H32            1.0139    -2.5767    -0.2414 H       
  33 H33            3.5757    -0.1339     0.4488 H       
  34 H34            6.7331    -2.9989     0.6069 H       
  35 H35            5.1186    -4.8133     0.2083 H       
  36 H36           -0.8895     3.1177     0.0606 H       
  37 H37           -1.8995     1.7706    -0.5171 H       
  38 H38            3.7154     2.4376     0.8751 H       
  39 H39            0.4081     5.7943     2.3507 H       
  40 H40           -0.3516     3.5800     1.6058 H       
  41 H41           -3.3721     3.6049     3.6889 H       
  42 H42           -4.8381     3.0200     2.8661 H       
  43 H43           -3.6553     1.8567     3.5111 H       
  44 H44           -4.2566     3.1119     0.0520 H       
  45 H45           -4.0525     4.5616     1.0644 H       
  46 H46           -2.7115     3.9954     0.0401 H       
  47 H47            6.1663     6.1809     1.9435 H       
  48 H48            4.9132     6.5707     0.7366 H       
  49 H49            4.4520     6.2677     3.7465 H       
  50 H50            4.5112     7.8116     2.8568 H       
  51 H51            3.7832    -5.9090    -0.9673 H       
  52 H52            3.5423    -6.0712     0.7888 H       
  53 H53            2.2415    -6.5343    -0.3345 H       
@<TRIPOS>BOND
   1    1    2 1
   2    1    5 1
   3    1   14 1
   4    2    3 2
   5    3    4 1
   6    3    6 1
   7    4    5 2
   8    5   13 1
   9    6    7 1
  10    6   32 1
  11    7    8 ar
  12    7   12 ar
  13    8    9 ar
  14    8   33 1
  15    9   10 ar
  16    9   25 1
  17   10   11 ar
  18   10   34 1
  19   11   12 ar
  20   11   35 1
  21   12   30 1
  22   13   15 ar
  23   13   19 ar
  24   14   20 1
  25   14   36 1
  26   14   37 1
  27   15   16 ar
  28   15   38 1
  29   16   17 ar
  30   16   26 1
  31   17   18 ar
  32   17   29 1
  33   18   19 ar
  34   18   39 1
  35   19   40 1
  36   20   21 am
  37   20   23 2
  38   21   22 1
  39   21   24 1
  40   22   41 1
  41   22   42 1
  42   22   43 1
  43   24   44 1
  44   24   45 1
  45   24   46 1
  46   26   27 1
  47   27   28 1
  48   27   47 1
  49   27   48 1
  50   28   29 1
  51   28   49 1
  52   28   50 1
  53   30   31 1
  54   31   51 1
  55   31   52 1
  56   31   53 1

#	End of record

