#	Name: ASD01042005
#	Creating user name:	WinNT
#	Creation time:	15. 06. 2019 18:58

#	Modifying user name:	WinNT
#	Modification time:	15. 06. 2019 18:58

#	Program:	/corina/corina34_cracker 3.40 0067  02.08.2006

@<TRIPOS>MOLECULE
ASD01042005
  76   79    0    0    0
SMALL
NO_CHARGES


@<TRIPOS>ATOM
   1 C1             1.3848     3.9084    -1.6412 C.3     
   2 C2             0.7226     2.5848    -2.0211 C.3     
   3 C3             0.4838     1.8017    -0.7320 C.3     
   4 C4             1.6780     1.7307     0.1801 C.2     
   5 C5             2.7173     2.5399     0.0062 C.2     
   6 C6             2.7716     3.5482    -1.1048 C.3     
   7 C7             1.6745     0.7717     1.3019 C.2     
   8 C8             2.8232     0.4134     1.8754 C.2     
   9 C9             4.0810     0.9944     1.2952 C.3     
  10 C10            3.8797     2.4631     0.9983 C.3     
  11 C11            5.4207     0.5867     1.8266 C.3     
  12 C12            6.2884     1.7580     2.2490 C.3     
  13 C13            6.4202     2.7873     1.1460 C.3     
  14 C14            5.1168     3.1364     0.4529 C.3     
  15 C15            5.5257    -0.2786     3.0893 C.3     
  16 C16            7.0488    -0.3004     3.2722 C.3     
  17 C17            7.5771     0.9894     2.6409 C.3     
  18 C18            8.3470     1.8070     3.6850 C.3     
  19 C19            9.4739     0.9761     4.2425 C.2     
  20 C20            9.5196     0.7054     5.5425 C.2     
  21 C21           10.6198    -0.1057     6.0867 C.2     
  22 C22           10.6101    -0.4656     7.3657 C.2     
  23 C23            9.5412     0.0607     8.2885 C.3     
  24 C24           11.6680    -1.4001     7.8935 C.3     
  25 C25            8.9178     3.0653     3.0279 C.3     
  26 C26            5.8476     2.4219     3.5571 C.3     
  27 O27           -0.5244     2.8324    -2.6790 O.3     
  28 C28           -0.6896     2.4249     0.0249 C.3     
  29 C29            6.1367    -0.1939     0.6845 C.3     
  30 C30            0.0926     0.3686    -1.1196 C.3     
  31 C31            3.3472     3.2092     2.1938 C.2     
  32 O32            3.7839     4.3014     2.4676 O.2     
  33 H33            1.4912     4.5399    -2.5283 H       
  34 H34            0.8149     4.4382    -0.8836 H       
  35 H35            1.3783     2.0163    -2.6863 H       
  36 H36            3.3677     3.1471    -1.9255 H       
  37 H37            3.2469     4.4593    -0.7406 H       
  38 H38            0.7505     0.3548     1.6656 H       
  39 H39            2.8443    -0.2541     2.7109 H       
  40 H40            4.0766     0.5357     0.2515 H       
  41 H41            6.8524     3.7116     1.5707 H       
  42 H42            7.1458     2.4345     0.3967 H       
  43 H43            5.2151     2.8929    -0.6200 H       
  44 H44            4.9779     4.2314     0.4980 H       
  45 H45            4.9992     0.1194     3.9404 H       
  46 H46            5.1637    -1.2945     2.8731 H       
  47 H47            7.2865    -0.3116     4.3413 H       
  48 H48            7.4840    -1.1761     2.7978 H       
  49 H49            8.2007     0.8036     1.7788 H       
  50 H50            7.6725     2.0927     4.4922 H       
  51 H51           10.2443     0.6006     3.5853 H       
  52 H52            8.7492     1.0809     6.1997 H       
  53 H53           11.4352    -0.4086     5.4467 H       
  54 H54            8.8178     0.6392     7.7140 H       
  55 H55            9.0358    -0.7748     8.7729 H       
  56 H56            9.9970     0.6982     9.0461 H       
  57 H57           12.5188    -0.8205     8.2518 H       
  58 H58           11.2571    -1.9876     8.7145 H       
  59 H59           11.9934    -2.0681     7.0960 H       
  60 H60            9.4859     2.7859     2.1406 H       
  61 H61            8.1012     3.7285     2.7426 H       
  62 H62            9.5729     3.5778     3.7323 H       
  63 H63            6.0068     1.7324     4.3861 H       
  64 H64            6.4322     3.3273     3.7201 H       
  65 H65            4.7900     2.6785     3.4958 H       
  66 H66           -0.4443     3.3495    -3.4921 H       
  67 H67           -1.5841     2.3874    -0.5969 H       
  68 H68           -0.8640     1.8691     0.9462 H       
  69 H69           -0.4572     3.4624     0.2649 H       
  70 H70            6.2565     0.4575    -0.1812 H       
  71 H71            7.1166    -0.5242     1.0291 H       
  72 H72            5.5380    -1.0613     0.4064 H       
  73 H73            0.8999    -0.0856    -1.6942 H       
  74 H74           -0.0847    -0.2163    -0.2171 H       
  75 H75           -0.8151     0.3903    -1.7227 H       
  76 H76            2.5750     2.7674     2.8061 H       
@<TRIPOS>BOND
   1    1    2 1
   2    1    6 1
   3    1   33 1
   4    1   34 1
   5    2    3 1
   6    2   27 1
   7    2   35 1
   8    3    4 1
   9    3   28 1
  10    3   30 1
  11    4    5 2
  12    4    7 1
  13    5    6 1
  14    5   10 1
  15    6   36 1
  16    6   37 1
  17    7    8 2
  18    7   38 1
  19    8    9 1
  20    8   39 1
  21    9   10 1
  22    9   11 1
  23    9   40 1
  24   10   31 1
  25   10   14 1
  26   11   12 1
  27   11   15 1
  28   11   29 1
  29   12   13 1
  30   12   26 1
  31   12   17 1
  32   13   14 1
  33   13   41 1
  34   13   42 1
  35   14   43 1
  36   14   44 1
  37   15   16 1
  38   15   45 1
  39   15   46 1
  40   16   17 1
  41   16   47 1
  42   16   48 1
  43   17   18 1
  44   17   49 1
  45   18   19 1
  46   18   25 1
  47   18   50 1
  48   19   20 2
  49   19   51 1
  50   20   21 1
  51   20   52 1
  52   21   22 2
  53   21   53 1
  54   22   23 1
  55   22   24 1
  56   23   54 1
  57   23   55 1
  58   23   56 1
  59   24   57 1
  60   24   58 1
  61   24   59 1
  62   25   60 1
  63   25   61 1
  64   25   62 1
  65   26   63 1
  66   26   64 1
  67   26   65 1
  68   27   66 1
  69   28   67 1
  70   28   68 1
  71   28   69 1
  72   29   70 1
  73   29   71 1
  74   29   72 1
  75   30   73 1
  76   30   74 1
  77   30   75 1
  78   31   32 2
  79   31   76 1

#	End of record

