#	Name: ASD03090862
#	Creating user name:	WinNT
#	Creation time:	15. 06. 2019 20:29

#	Modifying user name:	WinNT
#	Modification time:	15. 06. 2019 20:29

#	Program:	/corina/corina34_cracker 3.40 0067  02.08.2006

@<TRIPOS>MOLECULE
ASD03090862
  48   50    0    0    0
SMALL
NO_CHARGES


@<TRIPOS>ATOM
   1 N1            -0.0149     1.3421     0.1050 N.am    
   2 C2             0.0030    -0.0051     0.0720 C.2     
   3 O3            -1.0442    -0.6288     0.0750 O.2     
   4 N4             1.1687    -0.6570     0.0362 N.2     
   5 C5             1.2438     2.0918     0.1015 C.3     
   6 C6             1.6571     2.3877    -1.3416 C.3     
   7 S7            -0.1729    -3.0447     0.0008 S.3     
   8 C8             1.1864    -1.9875     0.0036 C.2     
   9 N9             2.2793    -2.7909    -0.0347 N.pl3   
  10 C10            2.0560    -4.1338    -0.0639 C.2     
  11 C11            0.7906    -4.5309    -0.0521 C.2     
  12 C12            0.2795    -5.9484    -0.0786 C.3     
  13 O13            7.4851    -0.9543    -0.0528 O.3     
  14 C14            8.1209    -2.2099    -0.3569 C.3     
  15 O15            7.1778    -3.1928     0.1096 O.3     
  16 C16            5.9555    -2.5894     0.0355 C.ar    
  17 C17            6.1440    -1.2125    -0.0645 C.ar    
  18 C18            4.6733    -3.1114     0.0455 C.ar    
  19 C19            3.5781    -2.2627    -0.0443 C.ar    
  20 C20            3.7690    -0.8915    -0.1440 C.ar    
  21 C21            5.0485    -0.3694    -0.1545 C.ar    
  22 F22            8.3226    -2.3376    -1.7353 F       
  23 F23            9.3332    -2.3264     0.3315 F       
  24 C24           -1.2932     2.0571     0.1383 C.3     
  25 C25           -1.7203     2.2709     1.5918 C.3     
  26 C26           -3.0553     3.0176     1.6265 C.3     
  27 C27           -3.4824     3.2314     3.0801 C.3     
  28 H28            1.1096     3.0296     0.6406 H       
  29 H29            2.0199     1.5009     0.5879 H       
  30 H30            2.5936     2.9454    -1.3442 H       
  31 H31            1.7912     1.4499    -1.8807 H       
  32 H32            0.8810     2.9786    -1.8279 H       
  33 H33            2.8708    -4.8420    -0.0951 H       
  34 H34           -0.8103    -5.9421    -0.0607 H       
  35 H35            0.6251    -6.4423    -0.9867 H       
  36 H36            0.6541    -6.4860     0.7925 H       
  37 H37            4.5250    -4.1784     0.1226 H       
  38 H38            2.9166    -0.2319    -0.2138 H       
  39 H39            5.1947     0.6979    -0.2316 H       
  40 H40           -1.1819     3.0234    -0.3537 H       
  41 H41           -2.0512     1.4704    -0.3806 H       
  42 H42           -1.8315     1.3046     2.0837 H       
  43 H43           -0.9622     2.8576     2.1107 H       
  44 H44           -2.9440     3.9839     1.1346 H       
  45 H45           -3.8133     2.4309     1.1077 H       
  46 H46           -4.4334     3.7634     3.1048 H       
  47 H47           -3.5936     2.2651     3.5720 H       
  48 H48           -2.7243     3.8181     3.5989 H       
@<TRIPOS>BOND
   1    1    2 am
   2    1    5 1
   3    1   24 1
   4    2    3 2
   5    2    4 1
   6    4    8 2
   7    5    6 1
   8    5   28 1
   9    5   29 1
  10    6   30 1
  11    6   31 1
  12    6   32 1
  13    7    8 1
  14    7   11 1
  15    8    9 1
  16    9   10 1
  17    9   19 1
  18   10   11 2
  19   10   33 1
  20   11   12 1
  21   12   34 1
  22   12   35 1
  23   12   36 1
  24   13   14 1
  25   13   17 1
  26   14   15 1
  27   14   22 1
  28   14   23 1
  29   15   16 1
  30   16   17 ar
  31   16   18 ar
  32   17   21 ar
  33   18   19 ar
  34   18   37 1
  35   19   20 ar
  36   20   21 ar
  37   20   38 1
  38   21   39 1
  39   24   25 1
  40   24   40 1
  41   24   41 1
  42   25   26 1
  43   25   42 1
  44   25   43 1
  45   26   27 1
  46   26   44 1
  47   26   45 1
  48   27   46 1
  49   27   47 1
  50   27   48 1

#	End of record

