#	Name: ASD01148493
#	Creating user name:	WinNT
#	Creation time:	15. 06. 2019 19:02

#	Modifying user name:	WinNT
#	Modification time:	15. 06. 2019 19:02

#	Program:	/corina/corina34_cracker 3.40 0067  02.08.2006

@<TRIPOS>MOLECULE
ASD01148493
  52   56    0    0    0
SMALL
NO_CHARGES


@<TRIPOS>ATOM
   1 C1            -0.0179     1.4351     0.0450 C.ar    
   2 C2            -0.0166     0.0527     0.0405 C.ar    
   3 C3             1.1811    -0.6372     0.0175 C.ar    
   4 C4             2.3774     0.0553    -0.0013 C.ar    
   5 C5             2.3760     1.4376     0.0023 C.ar    
   6 C6             1.1783     2.1275     0.0267 C.ar    
   7 C7             3.6801     2.1925    -0.0178 C.3     
   8 O8             4.6901     1.4586    -0.7395 O.3     
   9 C9             3.5608     3.4816    -0.8651 C.3     
  10 C10            4.0473     3.0267    -2.2280 C.2     
  11 N11            4.6600     1.8982    -2.0830 N.2     
  12 C12            3.8539     3.7470    -3.4982 C.ar    
  13 C13            4.3769     3.1929    -4.7446 C.ar    
  14 C14            3.1686     4.9538    -3.5196 C.ar    
  15 C15            2.9725     5.6514    -4.6983 C.ar    
  16 C16            3.4525     5.1746    -5.9101 C.ar    
  17 C17            4.1764     3.9064    -5.9500 C.ar    
  18 C18            3.2282     5.9402    -7.1500 C.2     
  19 O19            3.7401     5.5752    -8.1910 O.2     
  20 N20            2.4558     7.0445    -7.1297 N.am    
  21 C21            4.6779     3.3869    -7.1501 C.ar    
  22 C22            5.0690     1.9754    -4.7712 C.ar    
  23 C23            4.1465     2.5120     1.4040 C.3     
  24 F24            4.3115     1.3211     2.1194 F       
  25 F25            5.3649     3.1975     1.3521 F       
  26 F26            3.1895     3.3096     2.0405 F       
  27 C27            2.2329     7.8052    -8.3618 C.3     
  28 C28            1.3410     8.9843    -8.0697 C.2     
  29 C29            1.8188    10.2029    -7.8001 C.2     
  30 S30            0.4475    11.2737    -7.5219 S.3     
  31 C31           -0.6319     9.9764    -7.7957 C.2     
  32 N32            0.0260     8.8995    -8.0647 N.2     
  33 C33            5.5399     1.4944    -5.9567 C.ar    
  34 C34            5.3474     2.1993    -7.1420 C.ar    
  35 H35           -0.9537     1.9741     0.0584 H       
  36 H36           -0.9512    -0.4882     0.0552 H       
  37 H37            1.1822    -1.7172     0.0147 H       
  38 H38            3.3131    -0.4837    -0.0185 H       
  39 H39            1.1773     3.2075     0.0291 H       
  40 H40            2.5248     3.8166    -0.9161 H       
  41 H41            4.2034     4.2671    -0.4673 H       
  42 H42            2.7797     5.3569    -2.5962 H       
  43 H43            2.4338     6.5872    -4.6749 H       
  44 H44            2.0475     7.3356    -6.2994 H       
  45 H45            4.5349     3.9237    -8.0763 H       
  46 H46            5.2290     1.4213    -3.8581 H       
  47 H47            3.1886     8.1594    -8.7480 H       
  48 H48            1.7564     7.1641    -9.1034 H       
  49 H49            2.8614    10.4820    -7.7599 H       
  50 H50           -1.7087    10.0488    -7.7542 H       
  51 H51            6.0734     0.5556    -5.9762 H       
  52 H52            5.7338     1.7996    -8.0679 H       
@<TRIPOS>BOND
   1    1    2 ar
   2    1    6 ar
   3    1   35 1
   4    2    3 ar
   5    2   36 1
   6    3    4 ar
   7    3   37 1
   8    4    5 ar
   9    4   38 1
  10    5    6 ar
  11    5    7 1
  12    6   39 1
  13    7    8 1
  14    7    9 1
  15    7   23 1
  16    8   11 1
  17    9   10 1
  18    9   40 1
  19    9   41 1
  20   10   11 2
  21   10   12 1
  22   12   13 ar
  23   12   14 ar
  24   13   22 ar
  25   13   17 ar
  26   14   15 ar
  27   14   42 1
  28   15   16 ar
  29   15   43 1
  30   16   17 ar
  31   16   18 1
  32   17   21 ar
  33   18   19 2
  34   18   20 am
  35   20   27 1
  36   20   44 1
  37   21   34 ar
  38   21   45 1
  39   22   33 ar
  40   22   46 1
  41   23   24 1
  42   23   25 1
  43   23   26 1
  44   27   28 1
  45   27   47 1
  46   27   48 1
  47   28   29 2
  48   28   32 1
  49   29   30 1
  50   29   49 1
  51   30   31 1
  52   31   32 2
  53   31   50 1
  54   33   34 ar
  55   33   51 1
  56   34   52 1

#	End of record

