#	Name: ASD01915291
#	Creating user name:	WinNT
#	Creation time:	15. 06. 2019 20:05

#	Modifying user name:	WinNT
#	Modification time:	15. 06. 2019 20:05

#	Program:	/corina/corina34_cracker 3.40 0067  02.08.2006

@<TRIPOS>MOLECULE
ASD01915291
  51   53    0    0    0
SMALL
NO_CHARGES


@<TRIPOS>ATOM
   1 C1            -0.1043     1.6565     0.0070 C.2     
   2 C2            -0.1688     0.1524     0.0742 C.3     
   3 N3             1.0905     2.2802     0.0011 N.am    
   4 O4            -1.1274     2.3056    -0.0468 O.2     
   5 O5            -1.5350    -0.2665     0.0675 O.3     
   6 C6            -1.7088    -1.6836     0.1287 C.3     
   7 C7            -3.1799    -2.0103     0.1159 C.ar    
   8 C8            -3.8321    -2.2146    -1.0857 C.ar    
   9 C9            -5.1815    -2.5143    -1.0974 C.ar    
  10 C10           -5.8786    -2.6102     0.0924 C.ar    
  11 C11           -5.2262    -2.4068     1.2941 C.ar    
  12 C12           -3.8758    -2.1114     1.3060 C.ar    
  13 C13            1.1761     3.7470    -0.0640 C.3     
  14 C14            2.0922     4.2318     1.0646 C.3     
  15 N15            3.3801     3.5301     0.9811 N.3     
  16 C16            3.2135     2.0847     1.1834 C.3     
  17 C17            2.3432     1.5122     0.0657 C.3     
  18 C18            4.2932     4.0569     1.8845 C.ar    
  19 C19            5.4529     4.6995     1.4223 C.ar    
  20 C20            6.3636     5.2258     2.3432 C.ar    
  21 C21            6.1188     5.1113     3.6936 C.ar    
  22 C22            4.9728     4.4763     4.1466 C.ar    
  23 C23            4.0616     3.9562     3.2509 C.ar    
  24 C24            5.7085     4.8179    -0.0234 C.2     
  25 O25            4.9657     4.2762    -0.8182 O.2     
  26 O26            6.7662     5.5269    -0.4648 O.3     
  27 C27            6.9566     5.6008    -1.9024 C.3     
  28 H28            0.3456    -0.2722    -0.7879 H       
  29 H29            0.3121    -0.1913     0.9899 H       
  30 H30           -1.2263    -2.1463    -0.7322 H       
  31 H31           -1.2597    -2.0654     1.0456 H       
  32 H32           -3.2874    -2.1397    -2.0153 H       
  33 H33           -5.6912    -2.6732    -2.0362 H       
  34 H34           -6.9330    -2.8436     0.0832 H       
  35 H35           -5.7709    -2.4814     2.2236 H       
  36 H36           -3.3661    -1.9525     2.2448 H       
  37 H37            1.5904     4.0473    -1.0265 H       
  38 H38            0.1825     4.1777     0.0604 H       
  39 H39            2.2555     5.3049     0.9651 H       
  40 H40            1.6256     4.0222     2.0272 H       
  41 H41            4.1901     1.6006     1.1699 H       
  42 H42            2.7313     1.9050     2.1443 H       
  43 H43            2.1224     0.4652     0.2734 H       
  44 H44            2.8672     1.5970    -0.8863 H       
  45 H45            7.2583     5.7213     1.9960 H       
  46 H46            6.8236     5.5182     4.4036 H       
  47 H47            4.7901     4.3918     5.2077 H       
  48 H48            3.1713     3.4630     3.6122 H       
  49 H49            7.0896     4.5960    -2.3034 H       
  50 H50            6.0824     6.0624    -2.3614 H       
  51 H51            7.8408     6.1994    -2.1215 H       
@<TRIPOS>BOND
   1    1    2 1
   2    1    3 am
   3    1    4 2
   4    2    5 1
   5    2   28 1
   6    2   29 1
   7    3   13 1
   8    3   17 1
   9    5    6 1
  10    6    7 1
  11    6   30 1
  12    6   31 1
  13    7    8 ar
  14    7   12 ar
  15    8    9 ar
  16    8   32 1
  17    9   10 ar
  18    9   33 1
  19   10   11 ar
  20   10   34 1
  21   11   12 ar
  22   11   35 1
  23   12   36 1
  24   13   14 1
  25   13   37 1
  26   13   38 1
  27   14   15 1
  28   14   39 1
  29   14   40 1
  30   15   16 1
  31   15   18 1
  32   16   17 1
  33   16   41 1
  34   16   42 1
  35   17   43 1
  36   17   44 1
  37   18   19 ar
  38   18   23 ar
  39   19   20 ar
  40   19   24 1
  41   20   21 ar
  42   20   45 1
  43   21   22 ar
  44   21   46 1
  45   22   23 ar
  46   22   47 1
  47   23   48 1
  48   24   25 2
  49   24   26 1
  50   26   27 1
  51   27   49 1
  52   27   50 1
  53   27   51 1

#	End of record

