#	Name: ASD01900444
#	Creating user name:	WinNT
#	Creation time:	15. 06. 2019 19:51

#	Modifying user name:	WinNT
#	Modification time:	15. 06. 2019 19:51

#	Program:	/corina/corina34_cracker 3.40 0067  02.08.2006

@<TRIPOS>MOLECULE
ASD01900444
  36   39    0    0    0
SMALL
NO_CHARGES


@<TRIPOS>ATOM
   1 C1             0.4018     3.6941     0.7392 C.ar    
   2 C2             0.8615     4.6266     1.6887 C.ar    
   3 C3             2.2349     4.7955     1.8617 C.ar    
   4 C4             3.0893     4.0347     1.0881 C.ar    
   5 C5             2.5659     3.1334     0.1703 C.ar    
   6 N6             1.2693     2.9863     0.0196 N.ar    
   7 N7            -1.3942     4.6335     1.6938 N.2     
   8 N8            -0.2456     5.1924     2.2637 N.pl3   
   9 C9            -1.0610     3.7521     0.7886 C.2     
  10 N10           -1.9428     2.9937     0.0125 N.pl3   
  11 C11           -3.3232     3.1878     0.1310 C.ar    
  12 C12           -3.8255     4.4519     0.4134 C.ar    
  13 C13           -5.1887     4.6424     0.5303 C.ar    
  14 C14           -6.0563     3.5707     0.3653 C.ar    
  15 C15           -5.5548     2.3089     0.0838 C.ar    
  16 C16           -4.1923     2.1181    -0.0394 C.ar    
  17 O17           -7.3983     3.7587     0.4804 O.3     
  18 C18           -8.0739     4.2087    -0.6065 C.ar    
  19 C19           -9.4313     4.4865    -0.5062 C.ar    
  20 C20          -10.1095     4.9455    -1.6221 C.ar    
  21 C21           -9.4029     5.1113    -2.8048 C.ar    
  22 C22           -8.0529     4.8153    -2.8330 C.ar    
  23 N23           -7.4325     4.3838    -1.7502 N.ar    
  24 Cl24          -7.1611     5.0192    -4.3084 Cl      
  25 Cl25          -5.8173     6.2215     0.8838 Cl      
  26 H26            2.6201     5.5027     2.5813 H       
  27 H27            4.1587     4.1404     1.1961 H       
  28 H28            3.2388     2.5414    -0.4322 H       
  29 H29           -0.2348     5.8722     2.9556 H       
  30 H30           -1.5975     2.3330    -0.6081 H       
  31 H31           -3.1505     5.2851     0.5420 H       
  32 H32           -6.2302     1.4758    -0.0439 H       
  33 H33           -3.8026     1.1361    -0.2634 H       
  34 H34           -9.9507     4.3459     0.4301 H       
  35 H35          -11.1649     5.1693    -1.5734 H       
  36 H36           -9.9023     5.4674    -3.6938 H       
@<TRIPOS>BOND
   1    1    2 ar
   2    1    6 ar
   3    1    9 1
   4    2    3 ar
   5    2    8 1
   6    3    4 ar
   7    3   26 1
   8    4    5 ar
   9    4   27 1
  10    5    6 ar
  11    5   28 1
  12    7    8 1
  13    7    9 2
  14    8   29 1
  15    9   10 1
  16   10   11 1
  17   10   30 1
  18   11   12 ar
  19   11   16 ar
  20   12   13 ar
  21   12   31 1
  22   13   14 ar
  23   13   25 1
  24   14   15 ar
  25   14   17 1
  26   15   16 ar
  27   15   32 1
  28   16   33 1
  29   17   18 1
  30   18   19 ar
  31   18   23 ar
  32   19   20 ar
  33   19   34 1
  34   20   21 ar
  35   20   35 1
  36   21   22 ar
  37   21   36 1
  38   22   23 ar
  39   22   24 1

#	End of record

