#	Name: ASD01913140
#	Creating user name:	WinNT
#	Creation time:	15. 06. 2019 20:01

#	Modifying user name:	WinNT
#	Modification time:	15. 06. 2019 20:01

#	Program:	/corina/corina34_cracker 3.40 0067  02.08.2006

@<TRIPOS>MOLECULE
ASD01913140
  46   48    0    0    0
SMALL
NO_CHARGES


@<TRIPOS>ATOM
   1 C1            -0.1312     1.7480    -0.0684 C.ar    
   2 C2            -0.0611     0.3666    -0.1309 C.ar    
   3 C3            -1.2201    -0.3853    -0.1278 C.ar    
   4 C4            -2.4543     0.2443    -0.0620 C.ar    
   5 C5            -2.5230     1.6282     0.0006 C.ar    
   6 C6            -1.3623     2.3775     0.0026 C.ar    
   7 F7             1.0030     2.4821    -0.0710 F       
   8 O8            -3.5955    -0.4944    -0.0593 O.3     
   9 C9            -4.8309     0.2205     0.0103 C.3     
  10 C10           -5.9955    -0.7717     0.0025 C.3     
  11 C11           -7.2983    -0.0178     0.0759 C.2     
  12 N12           -8.4664    -0.6899     0.0823 N.am    
  13 C13           -9.7491     0.0262     0.1534 C.3     
  14 C14          -10.6533    -0.4815    -0.9749 C.3     
  15 N15          -10.7538    -1.9450    -0.8964 N.3     
  16 C16           -9.4460    -2.5808    -1.1044 C.3     
  17 C17           -8.4926    -2.1588     0.0123 C.3     
  18 O18           -7.2956     1.1939     0.1291 O.2     
  19 C19          -11.6935    -2.4295    -1.8013 C.ar    
  20 C20          -12.8307    -3.0836    -1.3438 C.ar    
  21 C21          -13.7624    -3.5633    -2.2438 C.ar    
  22 C22          -13.5715    -3.3969    -3.6067 C.ar    
  23 C23          -12.4483    -2.7505    -4.0788 C.ar    
  24 C24          -11.5000    -2.2547    -3.1803 C.ar    
  25 Cl25         -13.0806    -3.2987     0.3606 Cl      
  26 Cl26         -14.7517    -4.0056    -4.7248 Cl      
  27 C27          -10.3320    -1.5822    -3.6641 C.1     
  28 N28           -9.4054    -1.0488    -4.0479 N.1     
  29 H29            0.9000    -0.1233    -0.1824 H       
  30 H30           -1.1652    -1.4628    -0.1769 H       
  31 H31           -3.4834     2.1197     0.0514 H       
  32 H32           -1.4155     3.4550     0.0517 H       
  33 H33           -4.8598     0.8075     0.9282 H       
  34 H34           -4.9146     0.8858    -0.8492 H       
  35 H35           -5.9666    -1.3587    -0.9155 H       
  36 H36           -5.9118    -1.4369     0.8619 H       
  37 H37          -10.2226    -0.1653     1.1163 H       
  38 H38           -9.5784     1.0960     0.0324 H       
  39 H39          -11.6457    -0.0427    -0.8711 H       
  40 H40          -10.2283    -0.1972    -1.9375 H       
  41 H41           -9.5628    -3.6645    -1.0946 H       
  42 H42           -9.0378    -2.2673    -2.0652 H       
  43 H43           -7.4916    -2.5348    -0.1993 H       
  44 H44           -8.8433    -2.5586     0.9638 H       
  45 H45          -14.6446    -4.0715    -1.8835 H       
  46 H46          -12.3041    -2.6237    -5.1416 H       
@<TRIPOS>BOND
   1    1    2 ar
   2    1    7 1
   3    1    6 ar
   4    2    3 ar
   5    2   29 1
   6    3    4 ar
   7    3   30 1
   8    4    5 ar
   9    4    8 1
  10    5    6 ar
  11    5   31 1
  12    6   32 1
  13    8    9 1
  14    9   10 1
  15    9   33 1
  16    9   34 1
  17   10   11 1
  18   10   35 1
  19   10   36 1
  20   11   12 am
  21   11   18 2
  22   12   13 1
  23   12   17 1
  24   13   14 1
  25   13   37 1
  26   13   38 1
  27   14   15 1
  28   14   39 1
  29   14   40 1
  30   15   16 1
  31   15   19 1
  32   16   17 1
  33   16   41 1
  34   16   42 1
  35   17   43 1
  36   17   44 1
  37   19   20 ar
  38   19   24 ar
  39   20   21 ar
  40   20   25 1
  41   21   22 ar
  42   21   45 1
  43   22   23 ar
  44   22   26 1
  45   23   24 ar
  46   23   46 1
  47   24   27 1
  48   27   28 3

#	End of record

