#	Name: ASD03090318
#	Creating user name:	WinNT
#	Creation time:	15. 06. 2019 20:28

#	Modifying user name:	WinNT
#	Modification time:	15. 06. 2019 20:28

#	Program:	/corina/corina34_cracker 3.40 0067  02.08.2006

@<TRIPOS>MOLECULE
ASD03090318
  48   51    0    0    0
SMALL
NO_CHARGES


@<TRIPOS>ATOM
   1 N1            -0.8718     1.0158     1.2225 N.ar    
   2 C2            -0.7272    -0.2867     1.4144 C.ar    
   3 C3             0.4783    -0.9160     1.1311 C.ar    
   4 C4             1.5392    -0.1533     0.6393 C.ar    
   5 C5             1.3377     1.2202     0.4531 C.ar    
   6 C6             0.1097     1.7666     0.7591 C.ar    
   7 C7             2.8428    -0.7796     0.3234 C.2     
   8 N8             4.9387    -3.5110    -0.3838 N.pl3   
   9 C9             4.1417    -4.6561    -0.4823 C.ar    
  10 C10            2.8167    -4.5481    -0.8837 C.ar    
  11 C11            2.0295    -5.6816    -0.9808 C.ar    
  12 C12            2.5628    -6.9246    -0.6775 C.ar    
  13 C13            3.8851    -7.0338    -0.2763 C.ar    
  14 C14            4.6763    -5.9027    -0.1843 C.ar    
  15 N15            3.0593    -2.0656     0.1343 N.2     
  16 C16            4.3501    -2.2704    -0.1310 C.2     
  17 N17            4.9787    -1.1172    -0.1154 N.2     
  18 N18            4.0198    -0.1325     0.1723 N.pl3   
  19 C19            4.2508     1.3091     0.2931 C.3     
  20 C20            4.1335     1.9617    -1.0858 C.3     
  21 C21            4.2508     3.4805    -0.9429 C.3     
  22 F22            1.7929    -8.0307    -0.7727 F       
  23 O23            5.1804     1.4806    -1.9311 O.3     
  24 N24           -1.7933    -1.0321     1.9053 N.pl3   
  25 F25            4.4031    -8.2460     0.0193 F       
  26 F26            0.7403    -5.5769    -1.3708 F       
  27 C27           -1.6849    -2.4899     2.0018 C.3     
  28 C28           -2.5078    -3.1892     3.0857 C.3     
  29 C29           -2.9131    -3.3167     1.6159 C.3     
  30 H30            0.5931    -1.9782     1.2890 H       
  31 H31            2.1345     1.8434     0.0748 H       
  32 H32           -0.0516     2.8251     0.6176 H       
  33 H33            5.9004    -3.5787    -0.4910 H       
  34 H34            2.4008    -3.5797    -1.1197 H       
  35 H35            5.7065    -5.9880     0.1283 H       
  36 H36            3.5082     1.7412     0.9638 H       
  37 H37            5.2488     1.4848     0.6945 H       
  38 H38            3.1679     1.7116    -1.5252 H       
  39 H39            5.2164     3.7306    -0.5035 H       
  40 H40            4.1672     3.9454    -1.9252 H       
  41 H41            3.4522     3.8475    -0.2981 H       
  42 H42            6.0699     1.6683    -1.6013 H       
  43 H43           -2.6089    -0.5869     2.1838 H       
  44 H44           -0.7046    -2.9050     1.7679 H       
  45 H45           -2.0690    -4.0646     3.5645 H       
  46 H46           -3.1298    -2.5647     3.7269 H       
  47 H47           -3.8017    -2.7760     1.2901 H       
  48 H48           -2.7409    -4.2760     1.1277 H       
@<TRIPOS>BOND
   1    1    2 ar
   2    1    6 ar
   3    2    3 ar
   4    2   24 1
   5    3    4 ar
   6    3   30 1
   7    4    5 ar
   8    4    7 1
   9    5    6 ar
  10    5   31 1
  11    6   32 1
  12    7   15 2
  13    7   18 1
  14    8    9 1
  15    8   16 1
  16    8   33 1
  17    9   10 ar
  18    9   14 ar
  19   10   11 ar
  20   10   34 1
  21   11   12 ar
  22   11   26 1
  23   12   13 ar
  24   12   22 1
  25   13   14 ar
  26   13   25 1
  27   14   35 1
  28   15   16 1
  29   16   17 2
  30   17   18 1
  31   18   19 1
  32   19   20 1
  33   19   36 1
  34   19   37 1
  35   20   21 1
  36   20   23 1
  37   20   38 1
  38   21   39 1
  39   21   40 1
  40   21   41 1
  41   23   42 1
  42   24   27 1
  43   24   43 1
  44   27   28 1
  45   27   29 1
  46   27   44 1
  47   28   29 1
  48   28   45 1
  49   28   46 1
  50   29   47 1
  51   29   48 1

#	End of record

