#	Name: ASD02198239
#	Creating user name:	WinNT
#	Creation time:	15. 06. 2019 20:19

#	Modifying user name:	WinNT
#	Modification time:	15. 06. 2019 20:19

#	Program:	/corina/corina34_cracker 3.40 0067  02.08.2006

@<TRIPOS>MOLECULE
ASD02198239
  45   48    0    0    0
SMALL
NO_CHARGES


@<TRIPOS>ATOM
   1 C1            -0.0166     1.3743     0.0096 C.2     
   2 C2             0.0021    -0.0041     0.0020 C.2     
   3 C3            -1.1876    -0.8011     0.0086 C.1     
   4 S4             1.5679     2.0035    -0.0022 S.3     
   5 C5             2.2765     0.3966    -0.0175 C.2     
   6 C6             1.2838    -0.5519    -0.0132 C.2     
   7 C7             3.6592     0.1215    -0.0318 C.2     
   8 C8             4.6325     1.2311    -0.0341 C.2     
   9 O9             4.0512    -1.0336    -0.0422 O.2     
  10 N10            1.5312    -1.9168    -0.0221 N.pl3   
  11 N11           -1.1600     2.1392     0.0194 N.pl3   
  12 N12           -2.1314    -1.4333     0.0139 N.1     
  13 C13           -1.0634     3.6010     0.0268 C.3     
  14 C14           -2.3389     4.2167    -0.5745 C.3     
  15 C15            5.9677     1.0234    -0.0475 C.2     
  16 C16           -2.9729     5.0852     0.5317 C.3     
  17 C17           -1.7892     5.4293     1.4696 C.3     
  18 C18           -0.9667     4.1168     1.4775 C.3     
  19 S19            6.7695     2.5339    -0.0458 S.3     
  20 C20            5.2231     3.3742    -0.0267 C.2     
  21 N21            4.2598     2.5024    -0.0287 N.2     
  22 C22            5.0477     4.8428    -0.0155 C.ar    
  23 C23            6.1628     5.6816    -0.0204 C.ar    
  24 C24            3.7665     5.3952    -0.0059 C.ar    
  25 C25            3.6096     6.7660     0.0045 C.ar    
  26 C26            4.7193     7.5922     0.0049 C.ar    
  27 C27            5.9924     7.0507    -0.0099 C.ar    
  28 H28            2.4443    -2.2441    -0.0321 H       
  29 H29            0.7912    -2.5439    -0.0185 H       
  30 H30           -2.0302     1.7107     0.0213 H       
  31 H31           -0.1905     3.9201    -0.5426 H       
  32 H32           -2.0850     4.8353    -1.4353 H       
  33 H33           -3.0299     3.4279    -0.8719 H       
  34 H34            6.4512     0.0577    -0.0572 H       
  35 H35           -3.3990     5.9937     0.1062 H       
  36 H36           -3.7346     4.5211     1.0700 H       
  37 H37           -1.2006     6.2516     1.0630 H       
  38 H38           -2.1467     5.6671     2.4715 H       
  39 H39           -1.4044     3.3964     2.1685 H       
  40 H40            0.0712     4.3187     1.7422 H       
  41 H41            7.1570     5.2600    -0.0320 H       
  42 H42            2.8994     4.7513    -0.0069 H       
  43 H43            2.6185     7.1949     0.0120 H       
  44 H44            4.5912     8.6645     0.0124 H       
  45 H45            6.8546     7.7010    -0.0095 H       
@<TRIPOS>BOND
   1    1    2 2
   2    1    4 1
   3    1   11 1
   4    2    3 1
   5    2    6 1
   6    3   12 3
   7    4    5 1
   8    5    6 2
   9    5    7 1
  10    6   10 1
  11    7    8 1
  12    7    9 2
  13    8   15 2
  14    8   21 1
  15   10   28 1
  16   10   29 1
  17   11   13 1
  18   11   30 1
  19   13   14 1
  20   13   18 1
  21   13   31 1
  22   14   16 1
  23   14   32 1
  24   14   33 1
  25   15   19 1
  26   15   34 1
  27   16   17 1
  28   16   35 1
  29   16   36 1
  30   17   18 1
  31   17   37 1
  32   17   38 1
  33   18   39 1
  34   18   40 1
  35   19   20 1
  36   20   21 2
  37   20   22 1
  38   22   23 ar
  39   22   24 ar
  40   23   27 ar
  41   23   41 1
  42   24   25 ar
  43   24   42 1
  44   25   26 ar
  45   25   43 1
  46   26   27 ar
  47   26   44 1
  48   27   45 1

#	End of record

