#	Name: ASD01916542
#	Creating user name:	WinNT
#	Creation time:	15. 06. 2019 20:07

#	Modifying user name:	WinNT
#	Modification time:	15. 06. 2019 20:07

#	Program:	/corina/corina34_cracker 3.40 0067  02.08.2006

@<TRIPOS>MOLECULE
ASD01916542
  46   50    0    0    0
SMALL
NO_CHARGES


@<TRIPOS>ATOM
   1 C1            -0.0171     1.4100     0.0098 C.ar    
   2 C2             0.0021    -0.0041     0.0020 C.ar    
   3 C3            -1.1911    -0.7257     0.0414 C.ar    
   4 C4            -2.3839    -0.0648     0.0741 C.ar    
   5 C5            -2.4219     1.3383     0.0663 C.ar    
   6 C6            -1.2406     2.0765     0.0357 C.ar    
   7 N7             1.1598     2.0754     0.0021 N.2     
   8 C8             2.3198     1.4679    -0.0397 C.2     
   9 N9             2.4201     0.1198    -0.1575 N.am    
  10 C10            1.3105    -0.6628    -0.0625 C.2     
  11 C11           -3.6834     2.0156     0.0895 C.1     
  12 O12            1.4019    -1.8763    -0.0317 O.2     
  13 C13           -4.7175     2.5709     0.1085 C.1     
  14 C14           -5.9790     3.2483     0.1317 C.2     
  15 C15            3.5357     2.3454     0.1020 C.3     
  16 C16            4.7921     1.6930    -0.4308 C.3     
  17 C17            4.8966     0.2366    -0.0271 C.3     
  18 C18            3.6797    -0.5615    -0.4368 C.3     
  19 S19           -6.1823     4.9947     0.1253 S.3     
  20 C20           -7.9345     4.8031     0.1634 C.ar    
  21 C21           -8.2247     3.4314     0.1778 C.ar    
  22 N22           -7.1328     2.6627     0.1546 N.2     
  23 C23            6.1349    -0.3734    -0.6870 C.3     
  24 C24            5.0557     0.1533     1.4924 C.3     
  25 N25           -8.9108     5.7052     0.1780 N.ar    
  26 C26          -10.1787     5.3592     0.2064 C.ar    
  27 C27          -10.5525     4.0240     0.2228 C.ar    
  28 C28           -9.5852     3.0448     0.2084 C.ar    
  29 H29           -1.1705    -1.8055     0.0456 H       
  30 H30           -3.3064    -0.6255     0.1059 H       
  31 H31           -1.2729     3.1560     0.0317 H       
  32 H32            3.3642     3.2747    -0.4412 H       
  33 H33            3.6804     2.5784     1.1569 H       
  34 H34            4.7909     1.7592    -1.5188 H       
  35 H35            5.6596     2.2296    -0.0465 H       
  36 H36            3.6889    -1.5119     0.0969 H       
  37 H37            3.7381    -0.7637    -1.5063 H       
  38 H38            7.0241     0.1647    -0.3582 H       
  39 H39            6.2189    -1.4222    -0.4023 H       
  40 H40            6.0440    -0.2972    -1.7705 H       
  41 H41            4.1898     0.6078     1.9738 H       
  42 H42            5.1318    -0.8916     1.7930 H       
  43 H43            5.9588     0.6845     1.7928 H       
  44 H44          -10.9398     6.1254     0.2174 H       
  45 H45          -11.5978     3.7536     0.2464 H       
  46 H46           -9.8599     2.0004     0.2205 H       
@<TRIPOS>BOND
   1    1    2 ar
   2    1    7 1
   3    1    6 ar
   4    2    3 ar
   5    2   10 1
   6    3    4 ar
   7    3   29 1
   8    4    5 ar
   9    4   30 1
  10    5    6 ar
  11    5   11 1
  12    6   31 1
  13    7    8 2
  14    8    9 1
  15    8   15 1
  16    9   10 am
  17    9   18 1
  18   10   12 2
  19   11   13 3
  20   13   14 1
  21   14   19 1
  22   14   22 2
  23   15   16 1
  24   15   32 1
  25   15   33 1
  26   16   17 1
  27   16   34 1
  28   16   35 1
  29   17   18 1
  30   17   23 1
  31   17   24 1
  32   18   36 1
  33   18   37 1
  34   19   20 1
  35   20   21 ar
  36   20   25 ar
  37   21   22 1
  38   21   28 ar
  39   23   38 1
  40   23   39 1
  41   23   40 1
  42   24   41 1
  43   24   42 1
  44   24   43 1
  45   25   26 ar
  46   26   27 ar
  47   26   44 1
  48   27   28 ar
  49   27   45 1
  50   28   46 1

#	End of record

