#	Name: ASD00170191
#	Creating user name:	WinNT
#	Creation time:	15. 06. 2019 18:31

#	Modifying user name:	WinNT
#	Modification time:	15. 06. 2019 18:31

#	Program:	/corina/corina34_cracker 3.40 0067  02.08.2006

@<TRIPOS>MOLECULE
ASD00170191
  36   38    0    0    0
SMALL
NO_CHARGES


@<TRIPOS>ATOM
   1 C1            -0.0144     1.3328    -0.1104 C.2     
   2 C2             0.0055    -0.0012    -0.1407 C.2     
   3 C3            -1.3204    -0.5793     0.0265 C.2     
   4 C4            -2.3072     0.3600     0.1723 C.2     
   5 S5            -1.6530     1.9297     0.1175 S.3     
   6 C6             1.2015     2.2260    -0.2459 C.3     
   7 C7             2.0517     1.7761    -1.4327 C.3     
   8 C8             3.0745     0.7479    -0.9573 C.3     
   9 C9             2.4800    -0.0897     0.1728 C.3     
  10 C10            1.2552    -0.8423    -0.3377 C.3     
  11 N11           -3.6460     0.0727     0.3438 N.pl3   
  12 C12           -1.5739    -2.0197     0.0371 C.2     
  13 C13           -1.8294    -2.7351    -1.2323 C.ar    
  14 O14           -1.5746    -2.6301     1.0907 O.2     
  15 C15           -1.9617    -4.1241    -1.2394 C.ar    
  16 C16           -2.2006    -4.7856    -2.4275 C.ar    
  17 C17           -2.3087    -4.0733    -3.6096 C.ar    
  18 C18           -2.1784    -2.6958    -3.6085 C.ar    
  19 C19           -1.9449    -2.0228    -2.4273 C.ar    
  20 Br20          -2.3798    -6.6680    -2.4402 Br      
  21 H21            0.8785     3.2553    -0.4019 H       
  22 H22            1.7953     2.1695     0.6665 H       
  23 H23            1.4100     1.3276    -2.1910 H       
  24 H24            2.5702     2.6364    -1.8560 H       
  25 H25            3.3454     0.0958    -1.7876 H       
  26 H26            3.9651     1.2627    -0.5968 H       
  27 H27            3.2241    -0.8040     0.5252 H       
  28 H28            2.1878     0.5644     0.9943 H       
  29 H29            1.1512    -1.7781     0.2113 H       
  30 H30            1.3809    -1.0599    -1.3984 H       
  31 H31           -3.9557    -0.8451     0.2912 H       
  32 H32           -4.2774     0.7884     0.5169 H       
  33 H33           -1.8772    -4.6806    -0.3176 H       
  34 H34           -2.4953    -4.5950    -4.5366 H       
  35 H35           -2.2634    -2.1459    -4.5342 H       
  36 H36           -1.8437    -0.9475    -2.4281 H       
@<TRIPOS>BOND
   1    1    2 2
   2    1    6 1
   3    1    5 1
   4    2    3 1
   5    2   10 1
   6    3    4 2
   7    3   12 1
   8    4    5 1
   9    4   11 1
  10    6    7 1
  11    6   21 1
  12    6   22 1
  13    7    8 1
  14    7   23 1
  15    7   24 1
  16    8    9 1
  17    8   25 1
  18    8   26 1
  19    9   10 1
  20    9   27 1
  21    9   28 1
  22   10   29 1
  23   10   30 1
  24   11   31 1
  25   11   32 1
  26   12   13 1
  27   12   14 2
  28   13   15 ar
  29   13   19 ar
  30   15   16 ar
  31   15   33 1
  32   16   17 ar
  33   16   20 1
  34   17   18 ar
  35   17   34 1
  36   18   19 ar
  37   18   35 1
  38   19   36 1

#	End of record

