#	Name: ASD01882430
#	Creating user name:	WinNT
#	Creation time:	15. 06. 2019 19:44

#	Modifying user name:	WinNT
#	Modification time:	15. 06. 2019 19:44

#	Program:	/corina/corina34_cracker 3.40 0067  02.08.2006

@<TRIPOS>MOLECULE
ASD01882430
  55   60    0    0    0
SMALL
NO_CHARGES


@<TRIPOS>ATOM
   1 C1             0.1667     1.4360     0.1967 C.3     
   2 N2             0.0788    -0.0370     0.1769 N.3     
   3 C3             1.3964    -0.0714     0.8408 C.3     
   4 C4             1.6892     1.2864     0.2002 C.3     
   5 C5             2.3080     1.1976    -1.1915 C.3     
   6 C6             2.3173     2.5931    -1.8273 C.3     
   7 N7             2.9512     3.5332    -0.8934 N.pl3   
   8 C8             2.4165     3.6553     0.4692 C.3     
   9 C9             2.4078     2.2674     1.1215 C.3     
  10 C10           -0.9282    -0.4911     1.0367 C.ar    
  11 C11           -1.9257    -1.3337     0.5575 C.ar    
  12 C12           -2.9186    -1.7808     1.4093 C.ar    
  13 C13           -2.9196    -1.3901     2.7381 C.ar    
  14 C14           -1.9274    -0.5516     3.2161 C.ar    
  15 C15           -0.9297    -0.1061     2.3698 C.ar    
  16 F16           -3.8909    -1.8277     3.5690 F       
  17 F17           -1.9247    -1.7143    -0.7388 F       
  18 C18            5.0272     5.9806    -2.6826 C.2     
  19 C19            3.9093     5.2205    -2.2965 C.2     
  20 C20            4.0443     4.2977    -1.2943 C.2     
  21 C21            5.2984     4.1264    -0.6694 C.2     
  22 C22            6.3567     4.8656    -1.0557 C.2     
  23 N23            6.2330     5.7884    -2.0533 N.pl3   
  24 N24            6.4415     7.3146    -3.5593 N.2     
  25 N25            5.2169     6.9215    -3.5953 N.2     
  26 C26            7.1026     6.6588    -2.6420 C.2     
  27 C27            8.5600     6.8310    -2.2993 C.3     
  28 C28            9.4010     5.8834    -3.1570 C.3     
  29 C29           10.9229     5.9894    -3.0420 C.3     
  30 C30           10.1916     4.7907    -2.4346 C.3     
  31 Cl31           2.3771     5.4498    -3.0798 Cl      
  32 H32           -0.2217     1.9068    -0.7064 H       
  33 H33           -0.2282     1.8827     1.1093 H       
  34 H34            1.3361    -0.0348     1.9285 H       
  35 H35            2.0439    -0.8707     0.4802 H       
  36 H36            3.3298     0.8262    -1.1130 H       
  37 H37            1.7193     0.5196    -1.8095 H       
  38 H38            2.8824     2.5665    -2.7590 H       
  39 H39            1.2938     2.9106    -2.0271 H       
  40 H40            3.0470     4.3283     1.0502 H       
  41 H41            1.4000     4.0467     0.4292 H       
  42 H42            1.8871     2.3175     2.0777 H       
  43 H43            3.4331     1.9334     1.2809 H       
  44 H44           -3.6939    -2.4348     1.0384 H       
  45 H45           -1.9306    -0.2485     4.2527 H       
  46 H46           -0.1538     0.5448     2.7449 H       
  47 H47            5.4101     3.4000     0.1220 H       
  48 H48            7.3118     4.7266    -0.5711 H       
  49 H49            8.8599     7.8606    -2.4947 H       
  50 H50            8.7150     6.6012    -1.2452 H       
  51 H51            8.9858     5.6413    -4.1353 H       
  52 H52           11.5091     5.8168    -3.9447 H       
  53 H53           11.3251     6.7344    -2.3554 H       
  54 H54           10.1126     4.7469    -1.3484 H       
  55 H55           10.2966     3.8294    -2.9376 H       
@<TRIPOS>BOND
   1    1    2 1
   2    1    4 1
   3    1   32 1
   4    1   33 1
   5    2    3 1
   6    2   10 1
   7    3    4 1
   8    3   34 1
   9    3   35 1
  10    4    5 1
  11    4    9 1
  12    5    6 1
  13    5   36 1
  14    5   37 1
  15    6    7 1
  16    6   38 1
  17    6   39 1
  18    7    8 1
  19    7   20 1
  20    8    9 1
  21    8   40 1
  22    8   41 1
  23    9   42 1
  24    9   43 1
  25   10   11 ar
  26   10   15 ar
  27   11   12 ar
  28   11   17 1
  29   12   13 ar
  30   12   44 1
  31   13   14 ar
  32   13   16 1
  33   14   15 ar
  34   14   45 1
  35   15   46 1
  36   18   19 1
  37   18   23 1
  38   18   25 2
  39   19   20 2
  40   19   31 1
  41   20   21 1
  42   21   22 2
  43   21   47 1
  44   22   23 1
  45   22   48 1
  46   23   26 1
  47   24   25 1
  48   24   26 2
  49   26   27 1
  50   27   28 1
  51   27   49 1
  52   27   50 1
  53   28   29 1
  54   28   30 1
  55   28   51 1
  56   29   30 1
  57   29   52 1
  58   29   53 1
  59   30   54 1
  60   30   55 1

#	End of record

