#	Name: ASD03090131
#	Creating user name:	WinNT
#	Creation time:	15. 06. 2019 20:28

#	Modifying user name:	WinNT
#	Modification time:	15. 06. 2019 20:28

#	Program:	/corina/corina34_cracker 3.40 0067  02.08.2006

@<TRIPOS>MOLECULE
ASD03090131
  48   50    0    0    0
SMALL
NO_CHARGES


@<TRIPOS>ATOM
   1 C1            -0.0186     1.5024     0.0154 C.2     
   2 C2             0.0014    -0.0045     0.0123 C.3     
   3 O3             1.0237     2.1227     0.0093 O.2     
   4 N4            -1.1946     2.1607     0.0195 N.am    
   5 C5             1.4287    -0.4880     0.0013 C.ar    
   6 C6             2.0905    -0.7116     1.1947 C.ar    
   7 C7             3.3986    -1.1547     1.1881 C.ar    
   8 C8             4.0493    -1.3757    -0.0191 C.ar    
   9 C9             3.3815    -1.1500    -1.2160 C.ar    
  10 C10            2.0717    -0.7123    -1.2023 C.ar    
  11 N11            5.3724    -1.8233    -0.0293 N.pl3   
  12 C12            6.0571    -2.0558    -1.3034 C.3     
  13 C13           -1.2153     3.5574     0.1329 C.ar    
  14 C14           -2.1839     4.2939    -0.5363 C.ar    
  15 C15           -2.2048     5.6696    -0.4248 C.ar    
  16 C16           -1.2567     6.3175     0.3575 C.ar    
  17 C17           -0.2879     5.5802     1.0273 C.ar    
  18 C18           -0.2708     4.2041     0.9191 C.ar    
  19 S19           -1.2824     8.0736     0.4997 S.3     
  20 C20            0.1193     8.4145     1.5995 C.3     
  21 F21           -0.0833     7.7727     2.8260 F       
  22 F22            1.2978     7.9397     1.0139 F       
  23 C23            7.4625    -2.5312    -1.0389 C.2     
  24 C24            7.8303    -3.8062    -0.9033 C.2     
  25 C25            9.1798    -4.0018    -0.6649 C.2     
  26 C26            9.9078    -2.8856    -0.6069 C.2     
  27 S27            8.8700    -1.4901    -0.8694 S.3     
  28 C28           11.3933    -2.8293    -0.3595 C.3     
  29 H29           -0.5013    -0.3764     0.9052 H       
  30 H30           -0.5139    -0.3729    -0.8747 H       
  31 H31           -2.0266     1.6678    -0.0562 H       
  32 H32            1.5841    -0.5393     2.1329 H       
  33 H33            3.9150    -1.3289     2.1205 H       
  34 H34            3.8846    -1.3208    -2.1563 H       
  35 H35            1.5504    -0.5412    -2.1325 H       
  36 H36            5.8378    -1.9803     0.8071 H       
  37 H37            5.5184    -2.8135    -1.8725 H       
  38 H38            6.0889    -1.1274    -1.8736 H       
  39 H39           -2.9208     3.7903    -1.1443 H       
  40 H40           -2.9577     6.2424    -0.9458 H       
  41 H41            0.4492     6.0833     1.6355 H       
  42 H42            0.4798     3.6306     1.4427 H       
  43 H43            0.2013     9.4893     1.7611 H       
  44 H44            7.1283    -4.6239    -0.9738 H       
  45 H45            9.6104    -4.9837    -0.5353 H       
  46 H46           11.9222    -2.8745    -1.3115 H       
  47 H47           11.6417    -1.8984     0.1503 H       
  48 H48           11.6905    -3.6742     0.2618 H       
@<TRIPOS>BOND
   1    1    2 1
   2    1    3 2
   3    1    4 am
   4    2    5 1
   5    2   29 1
   6    2   30 1
   7    4   13 1
   8    4   31 1
   9    5    6 ar
  10    5   10 ar
  11    6    7 ar
  12    6   32 1
  13    7    8 ar
  14    7   33 1
  15    8    9 ar
  16    8   11 1
  17    9   10 ar
  18    9   34 1
  19   10   35 1
  20   11   12 1
  21   11   36 1
  22   12   23 1
  23   12   37 1
  24   12   38 1
  25   13   14 ar
  26   13   18 ar
  27   14   15 ar
  28   14   39 1
  29   15   16 ar
  30   15   40 1
  31   16   17 ar
  32   16   19 1
  33   17   18 ar
  34   17   41 1
  35   18   42 1
  36   19   20 1
  37   20   21 1
  38   20   22 1
  39   20   43 1
  40   23   24 2
  41   23   27 1
  42   24   25 1
  43   24   44 1
  44   25   26 2
  45   25   45 1
  46   26   27 1
  47   26   28 1
  48   28   46 1
  49   28   47 1
  50   28   48 1

#	End of record

