#	Name: ASD03140004
#	Creating user name:	WinNT
#	Creation time:	15. 06. 2019 20:33

#	Modifying user name:	WinNT
#	Modification time:	15. 06. 2019 20:33

#	Program:	/corina/corina34_cracker 3.40 0067  02.08.2006

@<TRIPOS>MOLECULE
ASD03140004
  44   46    0    0    0
SMALL
NO_CHARGES


@<TRIPOS>ATOM
   1 C1            -0.0167     1.3831     0.0096 C.ar    
   2 C2             0.0021    -0.0041     0.0020 C.ar    
   3 C3             1.2141    -0.6789    -0.0132 C.ar    
   4 C4             2.3989     0.0314    -0.0207 C.ar    
   5 C5             2.3774     1.4139    -0.0126 C.ar    
   6 C6             1.1708     2.0889     0.0021 C.ar    
   7 C7             3.6714     2.1863    -0.0198 C.3     
   8 C8             3.7521     3.0609     1.2341 C.3     
   9 O9             4.9525     3.8354     1.1966 O.3     
  10 C10            5.0376     4.7259     0.0822 C.3     
  11 C11            5.0085     3.9183    -1.2180 C.3     
  12 C12            3.7262     3.0815    -1.2616 C.3     
  13 H13            4.1927     5.4143     0.1016 H       
  14 H14            4.5106     1.4910    -0.0336 H       
  15 C15            6.3438     5.5188     0.1613 C.3     
  16 C16            6.3198     6.4193     1.3980 C.3     
  17 C17            7.6063     7.2002     1.4759 C.ar    
  18 C18            8.6909     6.6774     2.1556 C.ar    
  19 C19            7.7019     8.4357     0.8626 C.ar    
  20 C20            8.8803     9.1533     0.9322 C.ar    
  21 C21            9.9682     8.6335     1.6184 C.ar    
  22 C22            9.8714     7.3912     2.2285 C.ar    
  23 O23           11.1286     9.3373     1.6879 O.3     
  24 O24           -1.1648    -0.7006     0.0099 O.3     
  25 H25           -0.9590     1.9108     0.0170 H       
  26 H26            1.2314    -1.7588    -0.0188 H       
  27 H27            3.3426    -0.4935    -0.0325 H       
  28 H28            1.1567     3.1688     0.0080 H       
  29 H29            2.8904     3.7274     1.2686 H       
  30 H30            3.7566     2.4262     2.1203 H       
  31 H31            5.0289     4.5982    -2.0697 H       
  32 H32            5.8754     3.2586    -1.2565 H       
  33 H33            3.7256     2.4617    -2.1582 H       
  34 H34            2.8597     3.7426    -1.2731 H       
  35 H35            7.1843     4.8282     0.2309 H       
  36 H36            6.4510     6.1325    -0.7331 H       
  37 H37            5.4793     7.1098     1.3283 H       
  38 H38            6.2126     5.8055     2.2923 H       
  39 H39            8.6150     5.7103     2.6303 H       
  40 H40            6.8547     8.8400     0.3285 H       
  41 H41            8.9547    10.1180     0.4524 H       
  42 H42           10.7181     6.9826     2.7598 H       
  43 H43           11.1835     9.9311     2.4491 H       
  44 H44           -1.5113    -0.8975    -0.8712 H       
@<TRIPOS>BOND
   1    1    2 ar
   2    1    6 ar
   3    1   25 1
   4    2    3 ar
   5    2   24 1
   6    3    4 ar
   7    3   26 1
   8    4    5 ar
   9    4   27 1
  10    5    6 ar
  11    5    7 1
  12    6   28 1
  13    7    8 1
  14    7   12 1
  15    7   14 1
  16    8    9 1
  17    8   29 1
  18    8   30 1
  19    9   10 1
  20   10   11 1
  21   10   13 1
  22   10   15 1
  23   11   12 1
  24   11   31 1
  25   11   32 1
  26   12   33 1
  27   12   34 1
  28   15   16 1
  29   15   35 1
  30   15   36 1
  31   16   17 1
  32   16   37 1
  33   16   38 1
  34   17   19 ar
  35   17   18 ar
  36   18   22 ar
  37   18   39 1
  38   19   20 ar
  39   19   40 1
  40   20   21 ar
  41   20   41 1
  42   21   22 ar
  43   21   23 1
  44   22   42 1
  45   23   43 1
  46   24   44 1

#	End of record

