#	Name: ASD01410810
#	Creating user name:	WinNT
#	Creation time:	15. 06. 2019 19:18

#	Modifying user name:	WinNT
#	Modification time:	15. 06. 2019 19:18

#	Program:	/corina/corina34_cracker 3.40 0067  02.08.2006

@<TRIPOS>MOLECULE
ASD01410810
  34   35    0    0    0
SMALL
NO_CHARGES


@<TRIPOS>ATOM
   1 N1            -0.0169     1.3933     0.0097 N.pl3   
   2 C2             0.0021    -0.0041     0.0020 C.ar    
   3 C3             1.2137    -0.6832    -0.0132 C.ar    
   4 C4             1.2279    -2.0695    -0.0208 C.ar    
   5 C5             0.0325    -2.7749    -0.0132 C.ar    
   6 C6            -1.1718    -2.0975     0.0014 C.ar    
   7 C7            -1.1906    -0.7159     0.0153 C.ar    
   8 O8             2.4116    -2.7375    -0.0362 O.3     
   9 C9             2.3508    -4.1652    -0.0433 C.3     
  10 C10            3.7703    -4.7359    -0.0604 C.3     
  11 N11            4.4554    -4.3823     1.1900 N.3     
  12 C12            5.7287    -5.1063     1.3160 C.3     
  13 C13            6.4357    -4.6646     2.6001 C.3     
  14 O14            5.5712    -4.8913     3.7166 O.3     
  15 C15            4.3220    -4.2007     3.6270 C.3     
  16 C16            3.5936    -4.6377     2.3533 C.3     
  17 Cl17           2.7070     0.2020    -0.0232 Cl      
  18 H18            0.8165     1.8896     0.0044 H       
  19 H19           -0.8634     1.8668     0.0163 H       
  20 H20            0.0437    -3.8548    -0.0192 H       
  21 H21           -2.1002    -2.6491     0.0066 H       
  22 H22           -2.1333    -0.1892     0.0320 H       
  23 H23            1.8309    -4.5112     0.8500 H       
  24 H24            1.8132    -4.5015    -0.9298 H       
  25 H25            3.7245    -5.8208    -0.1554 H       
  26 H26            4.3189    -4.3200    -0.9055 H       
  27 H27            5.5354    -6.1782     1.3573 H       
  28 H28            6.3611    -4.8827     0.4569 H       
  29 H29            7.3527    -5.2400     2.7271 H       
  30 H30            6.6770    -3.6036     2.5362 H       
  31 H31            3.7103    -4.4406     4.4967 H       
  32 H32            4.5019    -3.1262     3.5930 H       
  33 H33            2.6675    -4.0720     2.2514 H       
  34 H34            3.3661    -5.7021     2.4111 H       
@<TRIPOS>BOND
   1    1    2 1
   2    1   18 1
   3    1   19 1
   4    2    3 ar
   5    2    7 ar
   6    3    4 ar
   7    3   17 1
   8    4    5 ar
   9    4    8 1
  10    5    6 ar
  11    5   20 1
  12    6    7 ar
  13    6   21 1
  14    7   22 1
  15    8    9 1
  16    9   10 1
  17    9   23 1
  18    9   24 1
  19   10   11 1
  20   10   25 1
  21   10   26 1
  22   11   12 1
  23   11   16 1
  24   12   13 1
  25   12   27 1
  26   12   28 1
  27   13   14 1
  28   13   29 1
  29   13   30 1
  30   14   15 1
  31   15   16 1
  32   15   31 1
  33   15   32 1
  34   16   33 1
  35   16   34 1

#	End of record

