#	Name: ASD01911204
#	Creating user name:	WinNT
#	Creation time:	15. 06. 2019 19:57

#	Modifying user name:	WinNT
#	Modification time:	15. 06. 2019 19:57

#	Program:	/corina/corina34_cracker 3.40 0067  02.08.2006

@<TRIPOS>MOLECULE
ASD01911204
  55   57    0    0    0
SMALL
NO_CHARGES


@<TRIPOS>ATOM
   1 C1             0.0185     1.3093     0.0784 C.ar    
   2 N2             0.0202    -0.0049     0.0313 N.ar    
   3 C3             0.9818    -0.6783    -0.5887 C.ar    
   4 C4             2.0285    -0.0042    -1.2135 C.ar    
   5 C5             2.0524     1.3814    -1.1798 C.ar    
   6 C6             1.0284     2.0444    -0.5222 C.ar    
   7 C7             0.9417    -2.1587    -0.6156 C.2     
   8 N8            -0.0682    -2.8166    -0.0124 N.am    
   9 C9            -0.1520    -4.2101    -0.1092 C.ar    
  10 C10           -1.3820    -4.8427     0.0125 C.ar    
  11 C11           -1.4625    -6.2183    -0.0832 C.ar    
  12 C12           -0.3177    -6.9663    -0.3000 C.ar    
  13 C13            0.9103    -6.3373    -0.4212 C.ar    
  14 C14            0.9943    -4.9619    -0.3327 C.ar    
  15 C15           -2.6282    -4.0291     0.2494 C.3     
  16 N16           -3.0881    -3.4596    -1.0196 N.am    
  17 O17            1.8194    -2.7802    -1.1817 O.2     
  18 F18           -0.3986    -8.3117    -0.3929 F       
  19 C19           -4.1939    -2.6897    -1.0512 C.2     
  20 C20           -4.6573    -2.1158    -2.3298 C.ar    
  21 C21           -5.8035    -1.3173    -2.3647 C.ar    
  22 C22           -6.2322    -0.7834    -3.5594 C.ar    
  23 C23           -5.5268    -1.0382    -4.7296 C.ar    
  24 C24           -4.3864    -1.8323    -4.6991 C.ar    
  25 C25           -3.9476    -2.3648    -3.5074 C.ar    
  26 O26           -4.8098    -2.4678    -0.0266 O.2     
  27 O27           -5.9528    -0.5105    -5.9051 O.3     
  28 C28           -5.1810    -0.8124    -7.0693 C.3     
  29 C29           -5.8107    -0.1354    -8.2883 C.3     
  30 C30           -4.9843    -0.4585    -9.5347 C.3     
  31 C31           -5.6140     0.2185   -10.7538 C.3     
  32 H32           -0.7832     1.8229     0.5882 H       
  33 H33            2.8105    -0.5534    -1.7169 H       
  34 H34            2.8510     1.9317    -1.6550 H       
  35 H35            1.0174     3.1235    -0.4780 H       
  36 H36           -0.7369    -2.3241     0.4888 H       
  37 H37           -2.4190    -6.7108     0.0113 H       
  38 H38            1.8021    -6.9228    -0.5895 H       
  39 H39            1.9521    -4.4718    -0.4273 H       
  40 H40           -3.4070    -4.6696     0.6636 H       
  41 H41           -2.4087    -3.2241     0.9507 H       
  42 H42           -2.5968    -3.6365    -1.8370 H       
  43 H43           -6.3525    -1.1195    -1.4560 H       
  44 H44           -7.1180    -0.1662    -3.5872 H       
  45 H45           -3.8414    -2.0286    -5.6107 H       
  46 H46           -3.0615    -2.9818    -3.4846 H       
  47 H47           -4.1632    -0.4459    -6.9355 H       
  48 H48           -5.1614    -1.8913    -7.2226 H       
  49 H49           -6.8285    -0.5019    -8.4221 H       
  50 H50           -5.8303     0.9436    -8.1350 H       
  51 H51           -3.9665    -0.0920    -9.4010 H       
  52 H52           -4.9647    -1.5375    -9.6880 H       
  53 H53           -5.0253    -0.0117   -11.6418 H       
  54 H54           -6.6318    -0.1480   -10.8876 H       
  55 H55           -5.6336     1.2974   -10.6005 H       
@<TRIPOS>BOND
   1    1    2 ar
   2    1    6 ar
   3    1   32 1
   4    2    3 ar
   5    3    4 ar
   6    3    7 1
   7    4    5 ar
   8    4   33 1
   9    5    6 ar
  10    5   34 1
  11    6   35 1
  12    7    8 am
  13    7   17 2
  14    8    9 1
  15    8   36 1
  16    9   10 ar
  17    9   14 ar
  18   10   11 ar
  19   10   15 1
  20   11   12 ar
  21   11   37 1
  22   12   13 ar
  23   12   18 1
  24   13   14 ar
  25   13   38 1
  26   14   39 1
  27   15   16 1
  28   15   40 1
  29   15   41 1
  30   16   19 am
  31   16   42 1
  32   19   20 1
  33   19   26 2
  34   20   21 ar
  35   20   25 ar
  36   21   22 ar
  37   21   43 1
  38   22   23 ar
  39   22   44 1
  40   23   24 ar
  41   23   27 1
  42   24   25 ar
  43   24   45 1
  44   25   46 1
  45   27   28 1
  46   28   29 1
  47   28   47 1
  48   28   48 1
  49   29   30 1
  50   29   49 1
  51   29   50 1
  52   30   31 1
  53   30   51 1
  54   30   52 1
  55   31   53 1
  56   31   54 1
  57   31   55 1

#	End of record

