#	Name: ASD04882568
#	Creating user name:	WinNT
#	Creation time:	15. 06. 2019 20:55

#	Modifying user name:	WinNT
#	Modification time:	15. 06. 2019 20:55

#	Program:	/corina/corina34_cracker 3.40 0067  02.08.2006

@<TRIPOS>MOLECULE
ASD04882568
  75   78    0    0    0
SMALL
NO_CHARGES


@<TRIPOS>ATOM
   1 C1            -0.0101     1.3826     0.0307 C.ar    
   2 C2             0.0214    -0.0103     0.1404 C.ar    
   3 C3            -1.1647    -0.7341     0.1694 C.ar    
   4 C4            -2.3754    -0.0818     0.0903 C.ar    
   5 C5            -2.4142     1.3107    -0.0195 C.ar    
   6 C6            -1.2226     2.0415    -0.0437 C.ar    
   7 N7             1.2439    -0.6744     0.2202 N.3     
   8 C8             1.3499    -1.4334     1.4741 C.3     
   9 C9             1.4435    -1.5517    -0.9417 C.3     
  10 C10            2.8273    -2.1999    -0.8563 C.3     
  11 N11            2.9333    -2.9590     0.3976 N.3     
  12 C12            2.7337    -2.0816     1.5595 C.3     
  13 C13           -3.7109     2.0092    -0.1042 C.2     
  14 O14           -3.7437     3.2210    -0.1997 O.2     
  15 N15           -4.8592     1.3042    -0.0757 N.am    
  16 N16            1.1859     2.1105     0.0021 N.am    
  17 C17            4.1586    -3.6247     0.4776 C.ar    
  18 C18            5.3455    -2.9039     0.4483 C.ar    
  19 C19            6.5555    -3.5653     0.5282 C.ar    
  20 C20            6.5860    -4.9433     0.6367 C.ar    
  21 C21            5.4060    -5.6641     0.6661 C.ar    
  22 C22            4.1928    -5.0088     0.5925 C.ar    
  23 S23            1.2698     3.5945     0.7323 S.o2    
  24 C24            0.8526     3.2692     2.4675 C.3     
  25 C25            2.9076    -5.7950     0.6251 C.3     
  26 C26           -6.1469     1.9978    -0.1598 C.3     
  27 C27           -7.2652     0.9890    -0.1069 C.ar    
  28 O28            2.6350     3.9689     0.6095 O.2     
  29 O29            0.2433     4.3517     0.1062 O.2     
  30 C30           -7.8057     0.6197     1.1104 C.ar    
  31 C31           -8.8317    -0.3057     1.1590 C.ar    
  32 C32           -9.3171    -0.8613    -0.0098 C.ar    
  33 C33           -8.7771    -0.4912    -1.2275 C.ar    
  34 C34           -7.7544     0.4372    -1.2764 C.ar    
  35 C35           -9.4203    -0.7091     2.4863 C.3     
  36 N36          -10.5395     0.1831     2.8171 N.3     
  37 C37          -11.2867    -0.3179     3.9784 C.3     
  38 C38          -10.0685     1.5556     3.0463 C.3     
  39 H39           -1.1370    -1.8104     0.2539 H       
  40 H40           -3.2953    -0.6472     0.1128 H       
  41 H41           -1.2493     3.1178    -0.1284 H       
  42 H42            1.2110    -0.7599     2.3198 H       
  43 H43            0.5835    -2.2082     1.4962 H       
  44 H44            0.6781    -2.3278    -0.9471 H       
  45 H45            1.3728    -0.9645    -1.8572 H       
  46 H46            2.9661    -2.8735    -1.7020 H       
  47 H47            3.5937    -1.4252    -0.8784 H       
  48 H48            3.4991    -1.3056     1.5649 H       
  49 H49            2.8044    -2.6689     2.4750 H       
  50 H50           -4.8331     0.3375     0.0005 H       
  51 H51            1.9652     1.7455    -0.4455 H       
  52 H52            5.3224    -1.8275     0.3629 H       
  53 H53            7.4788    -3.0054     0.5055 H       
  54 H54            7.5335    -5.4581     0.6983 H       
  55 H55            5.4334    -6.7405     0.7506 H       
  56 H56            1.5721     2.5672     2.8888 H       
  57 H57            0.8837     4.2025     3.0297 H       
  58 H58           -0.1487     2.8426     2.5266 H       
  59 H59            2.5769    -5.9080     1.6576 H       
  60 H60            2.1438    -5.2665     0.0547 H       
  61 H61            3.0724    -6.7792     0.1866 H       
  62 H62           -6.2420     2.6900     0.6768 H       
  63 H63           -6.2009     2.5513    -1.0973 H       
  64 H64           -7.4264     1.0539     2.0237 H       
  65 H65          -10.1181    -1.5848     0.0282 H       
  66 H66           -9.1562    -0.9256    -2.1407 H       
  67 H67           -7.3325     0.7263    -2.2276 H       
  68 H68           -9.7799    -1.7364     2.4272 H       
  69 H69           -8.6561    -0.6357     3.2601 H       
  70 H70          -10.6216    -0.3784     4.8398 H       
  71 H71          -12.1094     0.3613     4.2017 H       
  72 H72          -11.6835    -1.3083     3.7554 H       
  73 H73           -9.5798     1.9271     2.1457 H       
  74 H74          -10.9171     2.1950     3.2893 H       
  75 H75           -9.3593     1.5629     3.8740 H       
@<TRIPOS>BOND
   1    1    2 ar
   2    1   16 1
   3    1    6 ar
   4    2    3 ar
   5    2    7 1
   6    3    4 ar
   7    3   39 1
   8    4    5 ar
   9    4   40 1
  10    5    6 ar
  11    5   13 1
  12    6   41 1
  13    7    8 1
  14    7    9 1
  15    8   12 1
  16    8   42 1
  17    8   43 1
  18    9   10 1
  19    9   44 1
  20    9   45 1
  21   10   11 1
  22   10   46 1
  23   10   47 1
  24   11   12 1
  25   11   17 1
  26   12   48 1
  27   12   49 1
  28   13   14 2
  29   13   15 am
  30   15   26 1
  31   15   50 1
  32   16   23 am
  33   16   51 1
  34   17   18 ar
  35   17   22 ar
  36   18   19 ar
  37   18   52 1
  38   19   20 ar
  39   19   53 1
  40   20   21 ar
  41   20   54 1
  42   21   22 ar
  43   21   55 1
  44   22   25 1
  45   23   24 1
  46   23   28 2
  47   23   29 2
  48   24   56 1
  49   24   57 1
  50   24   58 1
  51   25   59 1
  52   25   60 1
  53   25   61 1
  54   26   27 1
  55   26   62 1
  56   26   63 1
  57   27   30 ar
  58   27   34 ar
  59   30   31 ar
  60   30   64 1
  61   31   32 ar
  62   31   35 1
  63   32   33 ar
  64   32   65 1
  65   33   34 ar
  66   33   66 1
  67   34   67 1
  68   35   36 1
  69   35   68 1
  70   35   69 1
  71   36   37 1
  72   36   38 1
  73   37   70 1
  74   37   71 1
  75   37   72 1
  76   38   73 1
  77   38   74 1
  78   38   75 1

#	End of record

