#	Name: ASD03930035
#	Creating user name:	WinNT
#	Creation time:	15. 06. 2019 20:47

#	Modifying user name:	WinNT
#	Modification time:	15. 06. 2019 20:47

#	Program:	/corina/corina34_cracker 3.40 0067  02.08.2006

@<TRIPOS>MOLECULE
ASD03930035
  28   30    0    0    0
SMALL
NO_CHARGES


@<TRIPOS>ATOM
   1 C1            -0.0166     1.3765     0.0096 C.ar    
   2 C2             0.0021    -0.0041     0.0020 C.ar    
   3 C3             1.1825    -0.7422    -0.0034 C.ar    
   4 C4             2.3844    -0.0947    -0.0015 C.ar    
   5 C5             2.3481     1.3007    -0.0130 C.ar    
   6 C6             1.1914     2.0700     0.0018 C.ar    
   7 C7             3.7117    -0.7962     0.0422 C.3     
   8 N8             4.7885    -0.0395    -0.6070 N.am    
   9 S9             5.1099     1.5358    -0.1320 S.o2    
  10 C10            3.4898     2.2412    -0.0658 C.2     
  11 N11            1.6063     3.3828    -0.0015 N.pl3   
  12 C12            2.9878     3.4506    -0.0490 C.2     
  13 O13            5.5986     1.4808     1.2011 O.2     
  14 O14            5.7983     2.1652    -1.2041 O.2     
  15 C15            5.5821    -0.6605    -1.6704 C.3     
  16 C16            0.7126     4.5429     0.0395 C.3     
  17 H17           -0.9549     1.9112     0.0170 H       
  18 H18           -0.9390    -0.5339     0.0006 H       
  19 H19            1.1475    -1.8216    -0.0088 H       
  20 H20            3.9830    -0.9672     1.0840 H       
  21 H21            3.6138    -1.7616    -0.4543 H       
  22 H22            3.5649     4.3633    -0.0690 H       
  23 H23            5.2297    -1.6779    -1.8399 H       
  24 H24            5.4762    -0.0817    -2.5880 H       
  25 H25            6.6309    -0.6838    -1.3746 H       
  26 H26            0.5266     4.8219     1.0766 H       
  27 H27            1.1775     5.3784    -0.4838 H       
  28 H28           -0.2315     4.2915    -0.4440 H       
@<TRIPOS>BOND
   1    1    2 ar
   2    1    6 ar
   3    1   17 1
   4    2    3 ar
   5    2   18 1
   6    3    4 ar
   7    3   19 1
   8    4    5 ar
   9    4    7 1
  10    5    6 ar
  11    5   10 1
  12    6   11 1
  13    7    8 1
  14    7   20 1
  15    7   21 1
  16    8    9 am
  17    8   15 1
  18    9   10 1
  19    9   13 2
  20    9   14 2
  21   10   12 2
  22   11   12 1
  23   11   16 1
  24   12   22 1
  25   15   23 1
  26   15   24 1
  27   15   25 1
  28   16   26 1
  29   16   27 1
  30   16   28 1

#	End of record

