#	Name: ASD01001104
#	Creating user name:	WinNT
#	Creation time:	15. 06. 2019 18:55

#	Modifying user name:	WinNT
#	Modification time:	15. 06. 2019 18:55

#	Program:	/corina/corina34_cracker 3.40 0067  02.08.2006

@<TRIPOS>MOLECULE
ASD01001104
  68   71    0    0    0
SMALL
NO_CHARGES


@<TRIPOS>ATOM
   1 C1             0.3385     0.8700    -1.3104 C.2     
   2 N2             0.0149     0.7698     0.0290 N.pl3   
   3 N3            -1.1336     0.0567     0.3950 N.2     
   4 C4            -1.8875    -0.5030    -0.4907 C.2     
   5 N5            -1.6219    -0.4407    -1.8354 N.am    
   6 C6            -0.5399     0.2294    -2.2901 C.2     
   7 C7             1.4959     1.6096    -1.4096 C.2     
   8 C8             1.8676     1.9555    -0.1078 C.2     
   9 C9             0.9477     1.4303     0.7420 C.2     
  10 O10           -0.2969     0.2899    -3.4819 O.2     
  11 C11           -2.5211    -1.1003    -2.7855 C.3     
  12 C12           -3.6673    -0.1790    -3.1148 C.ar    
  13 C13           -3.5231     0.7784    -4.1015 C.ar    
  14 C14           -4.5745     1.6236    -4.4035 C.ar    
  15 C15           -5.7703     1.5110    -3.7192 C.ar    
  16 C16           -5.9148     0.5530    -2.7331 C.ar    
  17 C17           -4.8649    -0.2950    -2.4341 C.ar    
  18 C18           -3.1086    -1.2559    -0.0291 C.3     
  19 N19           -2.6978    -2.3901     0.8021 N.am    
  20 C20           -4.0044    -0.3228     0.7882 C.3     
  21 C21           -2.0575    -2.1543     2.0985 C.3     
  22 C22           -2.9089    -3.6506     0.3741 C.2     
  23 C23           -3.4615    -3.8899    -0.9754 C.ar    
  24 O24           -2.6447    -4.5906     1.0982 O.2     
  25 C25           -3.1189    -2.1615     3.2004 C.3     
  26 H26            0.9615     1.5273     1.8176 H       
  27 C27           -2.4502    -1.9152     4.5543 C.3     
  28 C28           -4.5884    -3.1871    -1.4060 C.ar    
  29 C29           -5.0995    -3.4147    -2.6664 C.ar    
  30 C30           -4.4973    -4.3385    -3.5045 C.ar    
  31 C31           -3.3792    -5.0388    -3.0829 C.ar    
  32 C32           -2.8555    -4.8156    -1.8269 C.ar    
  33 Cl33          -5.1469    -4.6201    -5.0896 Cl      
  34 C34           -5.3139    -1.0387     1.1250 C.3     
  35 C35           -1.7443    -0.5579     4.5351 C.3     
  36 N36           -3.4693    -1.9221     5.6123 N.3     
  37 C37           -1.4260    -3.0190     4.8256 C.3     
  38 H38            2.0166     1.8715    -2.3188 H       
  39 H39            2.7334     2.5370     0.1728 H       
  40 H40           -1.9740    -1.3397    -3.6973 H       
  41 H41           -2.9082    -2.0178    -2.3425 H       
  42 H42           -2.5888     0.8664    -4.6361 H       
  43 H43           -4.4616     2.3720    -5.1738 H       
  44 H44           -6.5915     2.1717    -3.9546 H       
  45 H45           -6.8490     0.4653    -2.1983 H       
  46 H46           -4.9778    -1.0435    -1.6638 H       
  47 H47           -3.6594    -1.6212    -0.8958 H       
  48 H48           -3.4943    -0.0452     1.7106 H       
  49 H49           -4.2197     0.5745     0.2079 H       
  50 H50           -1.3278    -2.9406     2.2918 H       
  51 H51           -1.5546    -1.1874     2.0848 H       
  52 H52           -3.8486    -1.3752     3.0072 H       
  53 H53           -3.6218    -3.1285     3.2141 H       
  54 H54           -5.0590    -2.4668    -0.7533 H       
  55 H55           -5.9714    -2.8719    -3.0005 H       
  56 H56           -2.9141    -5.7581    -3.7407 H       
  57 H57           -1.9834    -5.3620    -1.4993 H       
  58 H58           -5.9329    -0.3908     1.7458 H       
  59 H59           -5.8460    -1.2754     0.2037 H       
  60 H60           -5.0958    -1.9597     1.6656 H       
  61 H61           -2.4740     0.2284     4.3418 H       
  62 H62           -1.2679    -0.3825     5.4996 H       
  63 H63           -0.9881    -0.5528     3.7501 H       
  64 H64           -3.0525    -1.7614     6.5170 H       
  65 H65           -4.1927    -1.2449     5.4220 H       
  66 H66           -0.6698    -3.0138     4.0406 H       
  67 H67           -0.9496    -2.8435     5.7901 H       
  68 H68           -1.9289    -3.9859     4.8393 H       
@<TRIPOS>BOND
   1    1    2 1
   2    1    7 2
   3    1    6 1
   4    2    3 1
   5    2    9 1
   6    3    4 2
   7    4    5 1
   8    4   18 1
   9    5    6 am
  10    5   11 1
  11    6   10 2
  12    7    8 1
  13    7   38 1
  14    8    9 2
  15    8   39 1
  16    9   26 1
  17   11   12 1
  18   11   40 1
  19   11   41 1
  20   12   13 ar
  21   12   17 ar
  22   13   14 ar
  23   13   42 1
  24   14   15 ar
  25   14   43 1
  26   15   16 ar
  27   15   44 1
  28   16   17 ar
  29   16   45 1
  30   17   46 1
  31   18   19 1
  32   18   20 1
  33   18   47 1
  34   19   21 1
  35   19   22 am
  36   20   34 1
  37   20   48 1
  38   20   49 1
  39   21   25 1
  40   21   50 1
  41   21   51 1
  42   22   23 1
  43   22   24 2
  44   23   28 ar
  45   23   32 ar
  46   25   27 1
  47   25   52 1
  48   25   53 1
  49   27   35 1
  50   27   36 1
  51   27   37 1
  52   28   29 ar
  53   28   54 1
  54   29   30 ar
  55   29   55 1
  56   30   31 ar
  57   30   33 1
  58   31   32 ar
  59   31   56 1
  60   32   57 1
  61   34   58 1
  62   34   59 1
  63   34   60 1
  64   35   61 1
  65   35   62 1
  66   35   63 1
  67   36   64 1
  68   36   65 1
  69   37   66 1
  70   37   67 1
  71   37   68 1

#	End of record

