#	Name: ASD07930472
#	Creating user name:	WinNT
#	Creation time:	15. 06. 2019 21:12

#	Modifying user name:	WinNT
#	Modification time:	15. 06. 2019 21:12

#	Program:	/corina/corina34_cracker 3.40 0067  02.08.2006

@<TRIPOS>MOLECULE
ASD07930472
  45   47    0    0    0
SMALL
NO_CHARGES


@<TRIPOS>ATOM
   1 F1            -8.7424    -4.5729    -7.8611 F       
   2 C2            -0.1440     1.4651     0.3079 C.3     
   3 N3             0.5902    -0.2182    -2.0455 N.2     
   4 N4            -0.9973    -1.6994    -1.1811 N.pl3   
   5 C5            -0.9256    -2.8146    -0.2311 C.3     
   6 C6            -1.1671    -2.2856     1.1894 C.3     
   7 S7             0.0522    -0.9764     1.5263 S.o2    
   8 N8            -0.0851     0.0063     0.1877 N.am    
   9 C9            -0.1414    -0.6255    -1.0465 C.2     
  10 C10            0.4586    -3.4620    -0.3068 C.3     
  11 C11           -1.9794    -3.8360    -0.5737 C.ar    
  12 C12           -2.8117    -3.6319    -1.6564 C.ar    
  13 C13           -3.7825    -4.5740    -1.9718 C.ar    
  14 C14           -3.9131    -5.7190    -1.1970 C.ar    
  15 C15           -3.0778    -5.9182    -0.1151 C.ar    
  16 C16           -2.1082    -4.9806     0.1938 C.ar    
  17 N17           -4.6274    -4.3696    -3.0678 N.am    
  18 C18           -5.0469    -5.4201    -3.8005 C.2     
  19 O19           -4.6169    -6.5333    -3.5687 O.2     
  20 O20           -0.3689    -0.1623     2.6122 O.2     
  21 O21            1.3754    -1.4901     1.4585 O.2     
  22 Cl22          -1.0601    -5.2340     1.5542 Cl      
  23 C23           -6.0300    -5.2187    -4.8862 C.ar    
  24 C24           -6.4607    -6.3113    -5.6418 C.ar    
  25 C25           -7.3841    -6.1057    -6.6578 C.ar    
  26 C26           -7.8438    -4.8161    -6.8821 C.ar    
  27 C27           -7.3703    -3.7768    -6.0899 C.ar    
  28 N28           -6.5003    -4.0006    -5.1313 N.ar    
  29 F29           -5.9853    -7.5502    -5.3881 F       
  30 H30            0.8656     1.8741     0.2672 H       
  31 H31           -0.7348     1.8737    -0.5120 H       
  32 H32           -0.6065     1.7331     1.2578 H       
  33 H33            1.1867     0.5383    -1.9330 H       
  34 H34           -1.6426    -1.7187    -1.9050 H       
  35 H35           -2.1749    -1.8769     1.2629 H       
  36 H36           -1.0451    -3.0954     1.9087 H       
  37 H37            1.2196    -2.7228    -0.0569 H       
  38 H38            0.5112    -4.2907     0.3994 H       
  39 H39            0.6310    -3.8338    -1.3168 H       
  40 H40           -2.7083    -2.7404    -2.2571 H       
  41 H41           -4.6672    -6.4529    -1.4399 H       
  42 H42           -3.1789    -6.8085     0.4879 H       
  43 H43           -4.9113    -3.4717    -3.3005 H       
  44 H44           -7.7362    -6.9304    -7.2597 H       
  45 H45           -7.7262    -2.7717    -6.2618 H       
@<TRIPOS>BOND
   1    1   26 1
   2    2    8 1
   3    2   30 1
   4    2   31 1
   5    2   32 1
   6    3    9 2
   7    3   33 1
   8    4    5 1
   9    4    9 1
  10    4   34 1
  11    5    6 1
  12    5   10 1
  13    5   11 1
  14    6    7 1
  15    6   35 1
  16    6   36 1
  17    7    8 am
  18    7   20 2
  19    7   21 2
  20    8    9 1
  21   10   37 1
  22   10   38 1
  23   10   39 1
  24   11   12 ar
  25   11   16 ar
  26   12   13 ar
  27   12   40 1
  28   13   14 ar
  29   13   17 1
  30   14   15 ar
  31   14   41 1
  32   15   16 ar
  33   15   42 1
  34   16   22 1
  35   17   18 am
  36   17   43 1
  37   18   19 2
  38   18   23 1
  39   23   24 ar
  40   23   28 ar
  41   24   25 ar
  42   24   29 1
  43   25   26 ar
  44   25   44 1
  45   26   27 ar
  46   27   28 ar
  47   27   45 1

#	End of record

