#	Name: ASD01811604
#	Creating user name:	WinNT
#	Creation time:	15. 06. 2019 19:27

#	Modifying user name:	WinNT
#	Modification time:	15. 06. 2019 19:27

#	Program:	/corina/corina34_cracker 3.40 0067  02.08.2006

@<TRIPOS>MOLECULE
ASD01811604
  63   67    0    0    0
SMALL
NO_CHARGES


@<TRIPOS>ATOM
   1 C1            -0.0705     1.2437     0.4791 C.ar    
   2 C2            -0.0145    -0.0307    -0.0726 C.ar    
   3 C3            -1.1572    -0.6195    -0.5814 C.ar    
   4 C4            -2.3610     0.0538    -0.5446 C.ar    
   5 C5            -2.4281     1.3343     0.0078 C.ar    
   6 C6            -1.2767     1.9264     0.5260 C.ar    
   7 C7            -3.7169     2.0579     0.0484 C.2     
   8 O8            -3.7876     3.1973    -0.3692 O.2     
   9 N9            -4.8133     1.4543     0.5485 N.am    
  10 C10           -6.0807     2.1872     0.6722 C.3     
  11 C11           -6.5780     2.0719     2.1166 C.3     
  12 C12           -6.6658     0.5943     2.5052 C.3     
  13 C13           -5.2759    -0.0407     2.4208 C.3     
  14 C14           -4.7654     0.0490     0.9746 C.3     
  15 C15           -7.1871     0.4758     3.9142 C.ar    
  16 C16           -8.3616    -0.2137     4.1583 C.ar    
  17 C17           -6.4861     1.0523     4.9586 C.ar    
  18 C18           -6.9573     0.9474     6.2508 C.ar    
  19 C19           -8.1446     0.2575     6.5036 C.ar    
  20 C20           -8.8443    -0.3264     5.4456 C.ar    
  21 C21           -8.6397     0.1445     7.8426 C.1     
  22 N22           -9.0325     0.0550     8.9047 N.1     
  23 N23            1.0871     1.8346     0.9915 N.pl3   
  24 C24            1.0279     3.1780     1.5730 C.3     
  25 C25            1.2962    -0.7730    -0.1167 C.3     
  26 C26            1.2752    -2.1064     0.6492 C.3     
  27 C27            2.1080    -2.6914    -0.5036 C.3     
  28 C28            1.4920    -1.6019    -1.3971 C.3     
  29 C29            1.1989     4.2480     0.4773 C.3     
  30 O30            2.3555     5.0296     0.8201 O.3     
  31 C31            3.2172     4.1829     1.6107 C.3     
  32 C32            2.2289     3.4111     2.5217 C.3     
  33 H33           -1.1073    -1.6098    -1.0095 H       
  34 H34           -3.2513    -0.4095    -0.9435 H       
  35 H35           -1.3226     2.9166     0.9545 H       
  36 H36           -5.9219     3.2364     0.4231 H       
  37 H37           -6.8192     1.7566    -0.0040 H       
  38 H38           -5.8824     2.5825     2.7827 H       
  39 H39           -7.5639     2.5291     2.1995 H       
  40 H40           -7.3425     0.0791     1.8234 H       
  41 H41           -4.5927     0.4898     3.0840 H       
  42 H42           -5.3352    -1.0871     2.7202 H       
  43 H43           -5.3976    -0.5570     0.3257 H       
  44 H44           -3.7377    -0.3112     0.9270 H       
  45 H45           -8.9019    -0.6645     3.3389 H       
  46 H46           -5.5676     1.5853     4.7616 H       
  47 H47           -6.4089     1.3975     7.0651 H       
  48 H48           -9.7634    -0.8611     5.6342 H       
  49 H49            1.9300     1.3555     0.9623 H       
  50 H50            0.0866     3.3220     2.1033 H       
  51 H51            2.1492    -0.1409     0.1305 H       
  52 H52            1.8080    -2.0726     1.5994 H       
  53 H53            0.2809    -2.5446     0.7357 H       
  54 H54            3.1836    -2.5844    -0.3633 H       
  55 H55            1.8153    -3.7032    -0.7841 H       
  56 H56            0.5569    -1.9022    -1.8701 H       
  57 H57            2.1999    -1.1608    -2.0989 H       
  58 H58            1.3494     3.7677    -0.4895 H       
  59 H59            0.3167     4.8872     0.4426 H       
  60 H60            3.7689     3.4932     0.9719 H       
  61 H61            3.9016     4.7840     2.2094 H       
  62 H62            1.9355     4.0173     3.3788 H       
  63 H63            2.6581     2.4632     2.8461 H       
@<TRIPOS>BOND
   1    1    2 ar
   2    1   23 1
   3    1    6 ar
   4    2    3 ar
   5    2   25 1
   6    3    4 ar
   7    3   33 1
   8    4    5 ar
   9    4   34 1
  10    5    6 ar
  11    5    7 1
  12    6   35 1
  13    7    8 2
  14    7    9 am
  15    9   10 1
  16    9   14 1
  17   10   11 1
  18   10   36 1
  19   10   37 1
  20   11   12 1
  21   11   38 1
  22   11   39 1
  23   12   13 1
  24   12   15 1
  25   12   40 1
  26   13   14 1
  27   13   41 1
  28   13   42 1
  29   14   43 1
  30   14   44 1
  31   15   16 ar
  32   15   17 ar
  33   16   20 ar
  34   16   45 1
  35   17   18 ar
  36   17   46 1
  37   18   19 ar
  38   18   47 1
  39   19   20 ar
  40   19   21 1
  41   20   48 1
  42   21   22 3
  43   23   24 1
  44   23   49 1
  45   24   29 1
  46   24   32 1
  47   24   50 1
  48   25   26 1
  49   25   28 1
  50   25   51 1
  51   26   27 1
  52   26   52 1
  53   26   53 1
  54   27   28 1
  55   27   54 1
  56   27   55 1
  57   28   56 1
  58   28   57 1
  59   29   30 1
  60   29   58 1
  61   29   59 1
  62   30   31 1
  63   31   32 1
  64   31   60 1
  65   31   61 1
  66   32   62 1
  67   32   63 1

#	End of record

