#	Name: ASD03240757
#	Creating user name:	WinNT
#	Creation time:	15. 06. 2019 20:35

#	Modifying user name:	WinNT
#	Modification time:	15. 06. 2019 20:35

#	Program:	/corina/corina34_cracker 3.40 0067  02.08.2006

@<TRIPOS>MOLECULE
ASD03240757
  81   88    0    0    0
SMALL
NO_CHARGES


@<TRIPOS>ATOM
   1 C1            -0.0891     1.4960    -0.1181 C.2     
   2 N2            -0.0918     0.1512    -0.1272 N.2     
   3 C3             1.0157    -0.5449    -0.1289 C.2     
   4 C4             2.2966     0.1586    -0.1205 C.ar    
   5 C5             2.2927     1.5700    -0.1110 C.ar    
   6 N6             1.0730     2.2190    -0.1100 N.pl3   
   7 C7             3.5140    -0.5299    -0.1213 C.ar    
   8 C8             4.6862     0.2194    -0.1125 C.ar    
   9 C9             4.6022     1.6251    -0.1033 C.ar    
  10 N10            3.4301     2.2426    -0.1037 N.ar    
  11 N11            0.7332     3.5772    -0.1018 N.2     
  12 C12           -0.5737     3.6860    -0.1047 C.2     
  13 C13           -1.1309     2.4134    -0.1091 C.2     
  14 C14            6.0073    -0.4536    -0.1124 C.ar    
  15 C15            6.2758    -1.4676     0.8056 C.ar    
  16 C16            7.5071    -2.0908     0.8007 C.ar    
  17 C17            8.4741    -1.7107    -0.1125 C.ar    
  18 C18            8.2134    -0.7047    -1.0255 C.ar    
  19 C19            6.9836    -0.0787    -1.0341 C.ar    
  20 C20           -1.3453     4.9805    -0.0973 C.3     
  21 C21            5.8466     2.4277    -0.0940 C.ar    
  22 C22            5.9017     3.6424    -0.7776 C.ar    
  23 C23            7.0641     4.3856    -0.7652 C.ar    
  24 C24            8.1736     3.9284    -0.0766 C.ar    
  25 C25            8.1252     2.7245     0.6033 C.ar    
  26 C26            6.9668     1.9749     0.6032 C.ar    
  27 C27            9.4402     4.7449    -0.0675 C.3     
  28 N28            9.4179     5.6705     1.0729 N.3     
  29 C29           10.7260     6.3125     1.2553 C.3     
  30 C30           10.7087     7.1548     2.5329 C.3     
  31 C31            9.6095     8.2153     2.4243 C.3     
  32 C32            8.2647     7.5228     2.1864 C.3     
  33 C33            8.3529     6.6698     0.9189 C.3     
  34 C34            9.5477     9.0093     3.7037 C.2     
  35 O35            9.7848     8.4703     4.7640 O.2     
  36 N36            9.2290    10.3184     3.6696 N.am    
  37 C37            9.0351    11.1823     4.8415 C.3     
  38 C38            8.6265    12.5762     4.3338 C.3     
  39 C39            8.1182    12.2979     2.8850 C.3     
  40 C40            9.0241    11.1195     2.4513 C.3     
  41 C41            6.6866    11.7626     3.1116 C.3     
  42 C42            6.1526    12.5604     4.3165 C.3     
  43 C43            7.3806    13.0543     5.0979 C.3     
  44 H44            0.9839    -1.6244    -0.1359 H       
  45 H45            3.5432    -1.6095    -0.1281 H       
  46 H46           -2.1854     2.1798    -0.1082 H       
  47 H47            5.5219    -1.7648     1.5195 H       
  48 H48            7.7163    -2.8766     1.5115 H       
  49 H49            9.4364    -2.2009    -0.1124 H       
  50 H50            8.9723    -0.4118    -1.7360 H       
  51 H51            6.7796     0.7036    -1.7503 H       
  52 H52           -1.5288     5.2999    -1.1232 H       
  53 H53           -2.2971     4.8332     0.4131 H       
  54 H54           -0.7681     5.7445     0.4234 H       
  55 H55            5.0364     4.0002    -1.3158 H       
  56 H56            7.1082     5.3260    -1.2944 H       
  57 H57            8.9945     2.3728     1.1390 H       
  58 H58            6.9288     1.0374     1.1380 H       
  59 H59           10.3000     4.0807     0.0203 H       
  60 H60            9.5130     5.3127    -0.9951 H       
  61 H61           11.4981     5.5472     1.3352 H       
  62 H62           10.9380     6.9541     0.4001 H       
  63 H63           10.5103     6.5115     3.3902 H       
  64 H64           11.6746     7.6435     2.6597 H       
  65 H65            9.8282     8.8825     1.5906 H       
  66 H66            8.0279     6.8853     3.0383 H       
  67 H67            7.4847     8.2744     2.0657 H       
  68 H68            8.5761     7.3098     0.0653 H       
  69 H69            7.4014     6.1641     0.7545 H       
  70 H70            8.2473    10.7743     5.4748 H       
  71 H71            9.9647    11.2527     5.4063 H       
  72 H72            9.4482    13.2917     4.3639 H       
  73 H73            8.1767    13.1606     2.2215 H       
  74 H74            9.9788    11.4911     2.0790 H       
  75 H75            8.5263    10.5231     1.6867 H       
  76 H76            6.0695    11.9458     2.2319 H       
  77 H77            6.7120    10.6978     3.3430 H       
  78 H78            5.5643    13.4101     3.9702 H       
  79 H79            5.5420    11.9164     4.9493 H       
  80 H80            7.3762    12.6309     6.1023 H       
  81 H81            7.3732    14.1430     5.1514 H       
@<TRIPOS>BOND
   1    1    2 1
   2    1    6 1
   3    1   13 2
   4    2    3 2
   5    3    4 1
   6    3   44 1
   7    4    5 ar
   8    4    7 ar
   9    5    6 1
  10    5   10 ar
  11    6   11 1
  12    7    8 ar
  13    7   45 1
  14    8    9 ar
  15    8   14 1
  16    9   10 ar
  17    9   21 1
  18   11   12 2
  19   12   13 1
  20   12   20 1
  21   13   46 1
  22   14   15 ar
  23   14   19 ar
  24   15   16 ar
  25   15   47 1
  26   16   17 ar
  27   16   48 1
  28   17   18 ar
  29   17   49 1
  30   18   19 ar
  31   18   50 1
  32   19   51 1
  33   20   52 1
  34   20   53 1
  35   20   54 1
  36   21   22 ar
  37   21   26 ar
  38   22   23 ar
  39   22   55 1
  40   23   24 ar
  41   23   56 1
  42   24   25 ar
  43   24   27 1
  44   25   26 ar
  45   25   57 1
  46   26   58 1
  47   27   28 1
  48   27   59 1
  49   27   60 1
  50   28   29 1
  51   28   33 1
  52   29   30 1
  53   29   61 1
  54   29   62 1
  55   30   31 1
  56   30   63 1
  57   30   64 1
  58   31   32 1
  59   31   34 1
  60   31   65 1
  61   32   33 1
  62   32   66 1
  63   32   67 1
  64   33   68 1
  65   33   69 1
  66   34   35 2
  67   34   36 am
  68   36   37 1
  69   36   40 1
  70   37   38 1
  71   37   70 1
  72   37   71 1
  73   38   39 1
  74   38   43 1
  75   38   72 1
  76   39   40 1
  77   39   41 1
  78   39   73 1
  79   40   74 1
  80   40   75 1
  81   41   42 1
  82   41   76 1
  83   41   77 1
  84   42   43 1
  85   42   78 1
  86   42   79 1
  87   43   80 1
  88   43   81 1

#	End of record

