#	Name: ASD03430678
#	Creating user name:	WinNT
#	Creation time:	15. 06. 2019 20:41

#	Modifying user name:	WinNT
#	Modification time:	15. 06. 2019 20:41

#	Program:	/corina/corina34_cracker 3.40 0067  02.08.2006

@<TRIPOS>MOLECULE
ASD03430678
  51   56    0    0    0
SMALL
NO_CHARGES


@<TRIPOS>ATOM
   1 C1            -0.0169     1.3929     0.0097 C.ar    
   2 C2             0.0021    -0.0041     0.0020 C.ar    
   3 C3             1.1907    -0.6691    -0.0092 C.ar    
   4 C4             2.4041     0.0263    -0.0023 C.ar    
   5 C5             2.3958     1.4151    -0.0028 C.ar    
   6 C6             1.1944     2.1062     0.0020 C.ar    
   7 O7             3.4619    -0.8329     0.0182 O.3     
   8 C8             1.5384    -2.1335    -0.0430 C.3     
   9 C9             3.0268    -2.1344    -0.4184 C.3     
  10 C10            0.4090    -3.8527     1.0004 C.ar    
  11 C11            1.2928    -2.8115     1.2721 C.ar    
  12 C12            0.7122    -2.8917    -1.0421 C.2     
  13 N13            0.0894    -3.8729    -0.3593 N.am    
  14 O14            0.6225    -2.6651    -2.2302 O.2     
  15 C15            1.7477    -2.5955     2.5538 C.ar    
  16 C16            1.3293    -3.4168     3.5855 C.ar    
  17 C17            0.4530    -4.4550     3.3268 C.ar    
  18 C18           -0.0063    -4.6751     2.0449 C.ar    
  19 C19           -0.8165    -4.8477    -0.9720 C.3     
  20 C20           -2.2258    -4.3150    -0.9368 C.ar    
  21 C21           -1.0869     2.3927     0.0311 C.2     
  22 N22           -0.5255     3.5629     0.0239 N.2     
  23 O23            0.8803     3.4182     0.0011 O.3     
  24 C24           -2.5677     2.1139     0.0564 C.3     
  25 C25           -2.7031    -3.5557    -1.9891 C.ar    
  26 C26           -3.9946    -3.0662    -1.9592 C.ar    
  27 C27           -4.8128    -3.3372    -0.8721 C.ar    
  28 C28           -4.3315    -4.0993     0.1824 C.ar    
  29 C29           -3.0411    -4.5912     0.1452 C.ar    
  30 O30           -6.0835    -2.8565    -0.8402 O.3     
  31 C31           -6.8689    -3.1749     0.3104 C.3     
  32 H32           -0.9258    -0.5567     0.0053 H       
  33 H33            3.3290     1.9586    -0.0070 H       
  34 H34            3.1539    -2.2436    -1.4954 H       
  35 H35            3.5601    -2.9201     0.1167 H       
  36 H36            2.4320    -1.7843     2.7538 H       
  37 H37            1.6860    -3.2475     4.5907 H       
  38 H38            0.1270    -5.0966     4.1321 H       
  39 H39           -0.6910    -5.4874     1.8506 H       
  40 H40           -0.5190    -5.0201    -2.0064 H       
  41 H41           -0.7687    -5.7858    -0.4190 H       
  42 H42           -2.9066     2.0440     1.0900 H       
  43 H43           -3.0982     2.9227    -0.4461 H       
  44 H44           -2.7691     1.1735    -0.4565 H       
  45 H45           -2.0656    -3.3447    -2.8350 H       
  46 H46           -4.3668    -2.4729    -2.7812 H       
  47 H47           -4.9666    -4.3117     1.0298 H       
  48 H48           -2.6660    -5.1846     0.9659 H       
  49 H49           -6.9629    -4.2573     0.3979 H       
  50 H50           -6.3835    -2.7791     1.2025 H       
  51 H51           -7.8593    -2.7312     0.2085 H       
@<TRIPOS>BOND
   1    1    2 ar
   2    1    6 ar
   3    1   21 1
   4    2    3 ar
   5    2   32 1
   6    3    4 ar
   7    3    8 1
   8    4    5 ar
   9    4    7 1
  10    5    6 ar
  11    5   33 1
  12    6   23 1
  13    7    9 1
  14    8    9 1
  15    8   11 1
  16    8   12 1
  17    9   34 1
  18    9   35 1
  19   10   11 ar
  20   10   13 1
  21   10   18 ar
  22   11   15 ar
  23   12   13 am
  24   12   14 2
  25   13   19 1
  26   15   16 ar
  27   15   36 1
  28   16   17 ar
  29   16   37 1
  30   17   18 ar
  31   17   38 1
  32   18   39 1
  33   19   20 1
  34   19   40 1
  35   19   41 1
  36   20   25 ar
  37   20   29 ar
  38   21   22 2
  39   21   24 1
  40   22   23 1
  41   24   42 1
  42   24   43 1
  43   24   44 1
  44   25   26 ar
  45   25   45 1
  46   26   27 ar
  47   26   46 1
  48   27   28 ar
  49   27   30 1
  50   28   29 ar
  51   28   47 1
  52   29   48 1
  53   30   31 1
  54   31   49 1
  55   31   50 1
  56   31   51 1

#	End of record

