#	Name: ASD06020040
#	Creating user name:	WinNT
#	Creation time:	15. 06. 2019 21:04

#	Modifying user name:	WinNT
#	Modification time:	15. 06. 2019 21:04

#	Program:	/corina/corina34_cracker 3.40 0067  02.08.2006

@<TRIPOS>MOLECULE
ASD06020040
  39   42    0    0    0
SMALL
NO_CHARGES


@<TRIPOS>ATOM
   1 C1             0.0029     1.3730     0.0050 C.3     
   2 O2             0.0324    -0.0555    -0.0129 O.3     
   3 C3             1.4130     1.9047    -0.0049 C.ar    
   4 C4             2.0430     2.1623    -1.2092 C.ar    
   5 C5             3.3351     2.6496    -1.2260 C.ar    
   6 C6             4.0055     2.8827    -0.0232 C.ar    
   7 C7             3.3630     2.6207     1.1888 C.ar    
   8 C8             2.0690     2.1381     1.1903 C.ar    
   9 Cl9            4.1869     2.9061     2.6899 Cl      
  10 Cl10           4.1242     2.9711    -2.7385 Cl      
  11 C11            8.9689     4.7405     0.7072 C.ar    
  12 C12            7.6916     4.2639     0.3943 C.ar    
  13 C13            7.3099     4.1418    -0.9467 C.ar    
  14 C14            8.2644     4.5178    -1.9259 C.ar    
  15 C15            9.4841     4.9714    -1.5336 C.ar    
  16 N16            9.8116     5.0737    -0.2550 N.ar    
  17 S17            6.3472     3.7414     1.4029 S.3     
  18 C18            5.3888     3.4037    -0.0330 C.2     
  19 N19            6.0690     3.6770    -1.0984 N.2     
  20 N20            9.3526     4.8697     2.0390 N.pl3   
  21 C21           12.8077     5.7102     1.6863 C.ar    
  22 N22           11.5703     5.3629     1.3963 N.ar    
  23 C23           10.6538     5.2356     2.3539 C.ar    
  24 C24           11.0196     5.4753     3.6749 C.ar    
  25 C25           12.3365     5.8399     3.9383 C.ar    
  26 N26           13.1930     5.9456     2.9239 N.ar    
  27 N27           12.7508     6.0891     5.2375 N.pl3   
  28 H28           -0.5286     1.7366    -0.8744 H       
  29 H29           -0.5078     1.7147     0.9053 H       
  30 H30           -0.8427    -0.4671    -0.0078 H       
  31 H31            1.5233     1.9815    -2.1385 H       
  32 H32            1.5694     1.9390     2.1269 H       
  33 H33            8.0239     4.4438    -2.9761 H       
  34 H34           10.2056     5.2558    -2.2852 H       
  35 H35            8.7106     4.7041     2.7470 H       
  36 H36           13.5281     5.8003     0.8868 H       
  37 H37           10.3002     5.3811     4.4749 H       
  38 H38           12.1212     6.0097     5.9711 H       
  39 H39           13.6705     6.3428     5.4131 H       
@<TRIPOS>BOND
   1    1    2 1
   2    1    3 1
   3    1   28 1
   4    1   29 1
   5    2   30 1
   6    3    4 ar
   7    3    8 ar
   8    4    5 ar
   9    4   31 1
  10    5    6 ar
  11    5   10 1
  12    6    7 ar
  13    6   18 1
  14    7    8 ar
  15    7    9 1
  16    8   32 1
  17   11   12 ar
  18   11   16 ar
  19   11   20 1
  20   12   13 ar
  21   12   17 1
  22   13   14 ar
  23   13   19 1
  24   14   15 ar
  25   14   33 1
  26   15   16 ar
  27   15   34 1
  28   17   18 1
  29   18   19 2
  30   20   23 1
  31   20   35 1
  32   21   22 ar
  33   21   26 ar
  34   21   36 1
  35   22   23 ar
  36   23   24 ar
  37   24   25 ar
  38   24   37 1
  39   25   26 ar
  40   25   27 1
  41   27   38 1
  42   27   39 1

#	End of record

