#	Name: ASD02610018
#	Creating user name:	WinNT
#	Creation time:	15. 06. 2019 20:25

#	Modifying user name:	WinNT
#	Modification time:	15. 06. 2019 20:25

#	Program:	/corina/corina34_cracker 3.40 0067  02.08.2006

@<TRIPOS>MOLECULE
ASD02610018
  79   81    0    0    0
SMALL
NO_CHARGES


@<TRIPOS>ATOM
   1 C1             0.4331     1.2068     0.2176 C.3     
   2 C2             0.8031    -0.2911     0.2783 C.3     
   3 C3             2.2858    -0.3701     0.0159 C.2     
   4 C4             2.8165     0.8088    -0.1392 C.2     
   5 C5             1.7882     1.8837     0.0805 C.3     
   6 C6             4.2255     1.1083    -0.5968 C.3     
   7 C7             4.7130     2.3863     0.0597 C.3     
   8 C8             4.3090     3.6415    -0.6516 C.3     
   9 C9             2.9230     4.1001    -0.2933 C.3     
  10 C10            1.8741     3.0897    -0.7634 C.3     
  11 O11            0.0876    -1.0148    -0.7248 O.3     
  12 C12            3.0613    -1.6601    -0.0580 C.3     
  13 O13           -0.2284     1.6232     1.4412 O.3     
  14 H14            2.0017     2.2482     1.0853 H       
  15 O15            0.5968     3.7303    -0.7748 O.3     
  16 C16            2.2140     2.6623    -2.1926 C.3     
  17 O17            4.3682     3.4069    -2.0833 O.3     
  18 C18            4.6538     4.4620    -2.8623 C.2     
  19 C19            4.7323     4.2950    -4.3580 C.3     
  20 O20            4.8481     5.5456    -2.3644 O.2     
  21 O21            5.1707     0.0931    -0.1571 O.3     
  22 C22            6.3896     0.6622    -0.0492 C.2     
  23 C23            6.2370     2.1663     0.1065 C.3     
  24 O24            4.2104     2.4434     1.3962 O.3     
  25 C25            5.0700     5.6400    -5.0043 C.3     
  26 C26            5.1497     5.4705    -6.5228 C.3     
  27 C27           -1.5682     1.5450     1.4667 C.2     
  28 C28           -2.3238     1.9598     2.7028 C.3     
  29 C29           -3.8245     1.7739     2.4696 C.3     
  30 C30           -4.5917     2.1951     3.7246 C.3     
  31 C31           -6.0923     2.0092     3.4914 C.3     
  32 C32           -6.8595     2.4304     4.7463 C.3     
  33 O33           -2.1683     1.1419     0.4986 O.2     
  34 O34            7.4409     0.0672    -0.0725 O.2     
  35 O35            6.8764     2.8504    -0.9729 O.3     
  36 C36           -8.3601     2.2444     4.5131 C.3     
  37 C37           -9.1273     2.6656     5.7681 C.3     
  38 C38            6.8058     2.6282     1.4497 C.3     
  39 H39           -0.1921     1.4151    -0.6507 H       
  40 H40            0.5754    -0.6935     1.2654 H       
  41 H41            4.2503     1.2135    -1.6815 H       
  42 H42            5.0163     4.4313    -0.3984 H       
  43 H43            2.8516     4.2135     0.7884 H       
  44 H44            2.7306     5.0628    -0.7670 H       
  45 H45            0.2780    -1.9628    -0.7370 H       
  46 H46            2.3860    -2.4999     0.1054 H       
  47 H47            3.5226    -1.7509    -1.0414 H       
  48 H48            3.8363    -1.6626     0.7085 H       
  49 H49            0.5655     4.5357    -1.3090 H       
  50 H50            1.3646     2.1339    -2.6255 H       
  51 H51            2.4369     3.5448    -2.7924 H       
  52 H52            3.0825     2.0040    -2.1782 H       
  53 H53            5.5082     3.5695    -4.6024 H       
  54 H54            3.7726     3.9415    -4.7350 H       
  55 H55            4.4792     3.2339     1.8840 H       
  56 H56            4.2942     6.3655    -4.7600 H       
  57 H57            6.0297     5.9935    -4.6274 H       
  58 H58            4.1900     5.1170    -6.8998 H       
  59 H59            5.3903     6.4287    -6.9833 H       
  60 H60            5.9256     4.7449    -6.7672 H       
  61 H61           -2.0081     1.3445     3.5453 H       
  62 H62           -2.1171     3.0077     2.9205 H       
  63 H63           -4.1403     2.3892     1.6271 H       
  64 H64           -4.0313     0.7261     2.2519 H       
  65 H65           -4.2759     1.5798     4.5671 H       
  66 H66           -4.3849     3.2429     3.9422 H       
  67 H67           -6.4081     2.6245     2.6489 H       
  68 H68           -6.2991     0.9613     3.2737 H       
  69 H69           -6.5437     1.8151     5.5888 H       
  70 H70           -6.6527     3.4782     4.9640 H       
  71 H71            7.8375     2.7452    -0.9909 H       
  72 H72           -8.6759     2.8597     3.6706 H       
  73 H73           -8.5669     1.1966     4.2955 H       
  74 H74           -8.8116     2.0503     6.6106 H       
  75 H75           -8.9205     3.7135     5.9858 H       
  76 H76          -10.1964     2.5332     5.6020 H       
  77 H77            6.3418     2.0596     2.2556 H       
  78 H78            7.8834     2.4647     1.4634 H       
  79 H79            6.5975     3.6892     1.5869 H       
@<TRIPOS>BOND
   1    1    2 1
   2    1    5 1
   3    1   13 1
   4    1   39 1
   5    2    3 1
   6    2   11 1
   7    2   40 1
   8    3    4 2
   9    3   12 1
  10    4    5 1
  11    4    6 1
  12    5   10 1
  13    5   14 1
  14    6    7 1
  15    6   21 1
  16    6   41 1
  17    7   23 1
  18    7   24 1
  19    7    8 1
  20    8    9 1
  21    8   17 1
  22    8   42 1
  23    9   10 1
  24    9   43 1
  25    9   44 1
  26   10   15 1
  27   10   16 1
  28   11   45 1
  29   12   46 1
  30   12   47 1
  31   12   48 1
  32   13   27 1
  33   15   49 1
  34   16   50 1
  35   16   51 1
  36   16   52 1
  37   17   18 1
  38   18   19 1
  39   18   20 2
  40   19   25 1
  41   19   53 1
  42   19   54 1
  43   21   22 1
  44   22   23 1
  45   22   34 2
  46   23   35 1
  47   23   38 1
  48   24   55 1
  49   25   26 1
  50   25   56 1
  51   25   57 1
  52   26   58 1
  53   26   59 1
  54   26   60 1
  55   27   28 1
  56   27   33 2
  57   28   29 1
  58   28   61 1
  59   28   62 1
  60   29   30 1
  61   29   63 1
  62   29   64 1
  63   30   31 1
  64   30   65 1
  65   30   66 1
  66   31   32 1
  67   31   67 1
  68   31   68 1
  69   32   36 1
  70   32   69 1
  71   32   70 1
  72   35   71 1
  73   36   37 1
  74   36   72 1
  75   36   73 1
  76   37   74 1
  77   37   75 1
  78   37   76 1
  79   38   77 1
  80   38   78 1
  81   38   79 1

#	End of record

