#	Name: ASD00071067
#	Creating user name:	WinNT
#	Creation time:	15. 06. 2019 18:30

#	Modifying user name:	WinNT
#	Modification time:	15. 06. 2019 18:30

#	Program:	/corina/corina34_cracker 3.40 0067  02.08.2006

@<TRIPOS>MOLECULE
ASD00071067
  36   38    0    0    0
SMALL
NO_CHARGES


@<TRIPOS>ATOM
   1 N1             2.6313     1.0878    -0.0584 N.ar    
   2 C2             2.4061    -0.1916     0.1587 C.ar    
   3 C3             1.1043    -0.7125     0.1903 C.ar    
   4 C4             0.0383     0.1124    -0.0061 C.ar    
   5 C5             0.2862     1.4811    -0.2377 C.ar    
   6 C6            -0.7653     2.3861    -0.4473 C.ar    
   7 C7            -0.4882     3.7017    -0.6675 C.ar    
   8 C8             0.8263     4.1608    -0.6879 C.ar    
   9 C9             1.8703     3.3096    -0.4887 C.ar    
  10 C10            1.6240     1.9457    -0.2580 C.ar    
  11 N11            3.4815    -1.0436     0.3604 N.pl3   
  12 C12            0.8853    -2.1823     0.4407 C.3     
  13 C13            0.8586    -2.4405     1.9252 C.ar    
  14 C14           -0.3032    -2.2129     2.6488 C.ar    
  15 C15           -0.3245    -2.4515     4.0151 C.ar    
  16 C16            0.8106    -2.9150     4.6520 C.ar    
  17 C17            1.9670    -3.1405     3.9289 C.ar    
  18 C18            1.9890    -2.9093     2.5657 C.ar    
  19 O19           -1.4183    -1.7566     2.0201 O.3     
  20 C20           -2.5778    -1.5448     2.8279 C.3     
  21 F21           -2.9528    -2.7504     3.4305 F       
  22 F22           -2.2903    -0.5985     3.8174 F       
  23 H23           -0.9707    -0.2721     0.0146 H       
  24 H24           -1.7888     2.0416    -0.4344 H       
  25 H25           -1.2984     4.3974    -0.8287 H       
  26 H26            1.0207     5.2083    -0.8648 H       
  27 H27            2.8841     3.6814    -0.5083 H       
  28 H28            4.3779    -0.6822     0.4426 H       
  29 H29            3.3373    -2.0010     0.4193 H       
  30 H30           -0.0643    -2.4882     0.0016 H       
  31 H31            1.6958    -2.7529    -0.0128 H       
  32 H32           -1.2275    -2.2747     4.5805 H       
  33 H33            0.7945    -3.1009     5.7158 H       
  34 H34            2.8534    -3.5022     4.4288 H       
  35 H35            2.8923    -3.0909     2.0021 H       
  36 H36           -3.3941    -1.1813     2.2037 H       
@<TRIPOS>BOND
   1    1    2 ar
   2    1   10 ar
   3    2    3 ar
   4    2   11 1
   5    3    4 ar
   6    3   12 1
   7    4    5 ar
   8    4   23 1
   9    5    6 ar
  10    5   10 ar
  11    6    7 ar
  12    6   24 1
  13    7    8 ar
  14    7   25 1
  15    8    9 ar
  16    8   26 1
  17    9   10 ar
  18    9   27 1
  19   11   28 1
  20   11   29 1
  21   12   13 1
  22   12   30 1
  23   12   31 1
  24   13   14 ar
  25   13   18 ar
  26   14   15 ar
  27   14   19 1
  28   15   16 ar
  29   15   32 1
  30   16   17 ar
  31   16   33 1
  32   17   18 ar
  33   17   34 1
  34   18   35 1
  35   19   20 1
  36   20   21 1
  37   20   22 1
  38   20   36 1

#	End of record

