#	Name: ASD00170440
#	Creating user name:	WinNT
#	Creation time:	15. 06. 2019 18:32

#	Modifying user name:	WinNT
#	Modification time:	15. 06. 2019 18:32

#	Program:	/corina/corina34_cracker 3.40 0067  02.08.2006

@<TRIPOS>MOLECULE
ASD00170440
  62   64    0    0    0
SMALL
NO_CHARGES


@<TRIPOS>ATOM
   1 C1             2.1197    -0.3923     1.3282 C.2     
   2 C2             1.6443    -1.6219     1.7292 C.2     
   3 C3             0.2581    -1.8263     1.3822 C.2     
   4 C4            -0.2807    -0.7806     0.7428 C.2     
   5 S5             0.8985     0.5037     0.5473 S.3     
   6 C6            -0.5032    -3.0860     1.7054 C.3     
   7 N7             3.4068     0.0546     1.5359 N.pl3   
   8 C8             2.4581    -2.6149     2.4320 C.2     
   9 C9             3.1197    -3.6986     1.6743 C.ar    
  10 O10            2.5903    -2.5485     3.6407 O.2     
  11 C11            3.9796    -4.5850     2.3255 C.ar    
  12 C12            4.5934    -5.5941     1.6137 C.ar    
  13 C13            4.3582    -5.7292     0.2554 C.ar    
  14 C14            3.5060    -4.8528    -0.3961 C.ar    
  15 C15            2.8824    -3.8431     0.3061 C.ar    
  16 Cl16           5.1349    -7.0016    -0.6342 Cl      
  17 C17           -1.6795    -0.7151     0.2709 C.ar    
  18 C18           -2.4893     0.3654     0.6257 C.ar    
  19 C19           -3.7942     0.4203     0.1817 C.ar    
  20 C20           -4.3009    -0.5923    -0.6136 C.ar    
  21 C21           -3.5039    -1.6661    -0.9686 C.ar    
  22 C22           -2.1954    -1.7305    -0.5366 C.ar    
  23 N23           -0.6117    -3.2324     3.1630 N.3     
  24 C24           -1.6879    -2.3878     3.6983 C.3     
  25 C25           -0.8105    -4.6388     3.5376 C.3     
  26 C26           -1.1687    -0.9617     3.8918 C.3     
  27 C27           -0.0389    -0.9658     4.9235 C.3     
  28 C28           -0.5857    -4.8026     5.0421 C.3     
  29 C29            0.8732    -4.4860     5.3772 C.3     
  30 C30           -2.2378    -5.0634     3.1860 C.3     
  31 C31           -2.8617    -2.3745     2.7169 C.3     
  32 H32           -1.5012    -3.0291     1.2707 H       
  33 H33            0.0245    -3.9456     1.2922 H       
  34 H34            4.0274    -0.4789     2.0565 H       
  35 H35            3.6920     0.9028     1.1614 H       
  36 H36            4.1641    -4.4804     3.3845 H       
  37 H37            5.2591    -6.2801     2.1162 H       
  38 H38            3.3267    -4.9629    -1.4554 H       
  39 H39            2.2179    -3.1606    -0.2029 H       
  40 H40           -2.0951     1.1562     1.2467 H       
  41 H41           -4.4219     1.2554     0.4557 H       
  42 H42           -5.3232    -0.5444    -0.9585 H       
  43 H43           -3.9057    -2.4534    -1.5893 H       
  44 H44           -1.5743    -2.5692    -0.8144 H       
  45 H45           -2.0202    -2.7867     4.6567 H       
  46 H46           -0.1014    -5.2633     2.9942 H       
  47 H47           -0.7925    -0.5801     2.9426 H       
  48 H48           -1.9798    -0.3243     4.2438 H       
  49 H49            0.3857     0.0350     5.0014 H       
  50 H50           -0.4335    -1.2696     5.8931 H       
  51 H51            0.7359    -1.6659     4.6110 H       
  52 H52           -1.2395    -4.1190     5.5837 H       
  53 H53           -0.8111    -5.8284     5.3336 H       
  54 H54            1.5291    -5.1071     4.7673 H       
  55 H55            1.0734    -3.4346     5.1712 H       
  56 H56            1.0564    -4.6908     6.4320 H       
  57 H57           -2.9469    -4.4389     3.7294 H       
  58 H58           -2.3980    -4.9467     2.1142 H       
  59 H59           -2.3853    -6.1069     3.4639 H       
  60 H60           -3.1549    -3.3989     2.4873 H       
  61 H61           -3.7039    -1.8472     3.1649 H       
  62 H62           -2.5624    -1.8679     1.7994 H       
@<TRIPOS>BOND
   1    1    2 2
   2    1    7 1
   3    1    5 1
   4    2    3 1
   5    2    8 1
   6    3    4 2
   7    3    6 1
   8    4    5 1
   9    4   17 1
  10    6   23 1
  11    6   32 1
  12    6   33 1
  13    7   34 1
  14    7   35 1
  15    8    9 1
  16    8   10 2
  17    9   11 ar
  18    9   15 ar
  19   11   12 ar
  20   11   36 1
  21   12   13 ar
  22   12   37 1
  23   13   14 ar
  24   13   16 1
  25   14   15 ar
  26   14   38 1
  27   15   39 1
  28   17   18 ar
  29   17   22 ar
  30   18   19 ar
  31   18   40 1
  32   19   20 ar
  33   19   41 1
  34   20   21 ar
  35   20   42 1
  36   21   22 ar
  37   21   43 1
  38   22   44 1
  39   23   24 1
  40   23   25 1
  41   24   26 1
  42   24   31 1
  43   24   45 1
  44   25   28 1
  45   25   30 1
  46   25   46 1
  47   26   27 1
  48   26   47 1
  49   26   48 1
  50   27   49 1
  51   27   50 1
  52   27   51 1
  53   28   29 1
  54   28   52 1
  55   28   53 1
  56   29   54 1
  57   29   55 1
  58   29   56 1
  59   30   57 1
  60   30   58 1
  61   30   59 1
  62   31   60 1
  63   31   61 1
  64   31   62 1

#	End of record

