#	Name: ASD03331552
#	Creating user name:	WinNT
#	Creation time:	15. 06. 2019 20:39

#	Modifying user name:	WinNT
#	Modification time:	15. 06. 2019 20:39

#	Program:	/corina/corina34_cracker 3.40 0067  02.08.2006

@<TRIPOS>MOLECULE
ASD03331552
  56   58    0    0    0
SMALL
NO_CHARGES


@<TRIPOS>ATOM
   1 C1            -0.0114     0.4963    -0.3669 C.ar    
   2 C2            -0.0094    -0.6148    -1.2140 C.ar    
   3 C3             1.1643     1.3916    -0.3147 C.2     
   4 N4             1.1286     2.7550    -0.3605 N.pl3   
   5 C5             2.4173     3.1945    -0.3113 C.2     
   6 C6             3.2137     2.0977    -0.2076 C.2     
   7 N7             2.4150     1.0071    -0.2110 N.2     
   8 C8            -0.0622     3.6056    -0.4264 C.3     
   9 C9             0.2978     4.9297    -1.1049 C.3     
  10 O10            0.7725     5.8617    -0.1316 O.3     
  11 C11            1.9518     5.4582     0.5587 C.3     
  12 C12            2.8388     4.6384    -0.3842 C.3     
  13 C13            4.6836     2.0978    -0.1052 C.2     
  14 O14            5.2934     3.1501    -0.1089 O.2     
  15 N15            5.3524     0.9318    -0.0075 N.am    
  16 C16            6.8139     0.9319     0.0943 C.3     
  17 C17            7.3529    -0.3808    -0.4130 C.2     
  18 C18            6.5580     0.0430     2.4153 C.3     
  19 N19            8.5899    -0.4411    -0.9446 N.am    
  20 O20            6.6735    -1.3830    -0.3429 O.2     
  21 C21            7.2232     1.1204     1.5565 C.3     
  22 C22            8.7438     1.0038     1.6794 C.3     
  23 C23            6.7772     2.5029     2.0368 C.3     
  24 C24            9.0718    -1.6905    -1.5388 C.3     
  25 C25           -1.1110    -1.4483    -1.2588 C.ar    
  26 C26           -2.2150    -1.1836    -0.4665 C.ar    
  27 C27           -2.2221    -0.0809     0.3770 C.ar    
  28 C28           -1.1293     0.7613     0.4256 C.ar    
  29 F29           -3.2896    -2.0010    -0.5147 F       
  30 F30           -3.3027     0.1717     1.1475 F       
  31 F31            1.0671    -0.8736    -1.9883 F       
  32 H32           -0.8382     3.1011    -1.0021 H       
  33 H33           -0.4261     3.8009     0.5823 H       
  34 H34            1.0753     4.7556    -1.8488 H       
  35 H35           -0.5861     5.3372    -1.5955 H       
  36 H36            2.4964     6.3407     0.8944 H       
  37 H37            1.6782     4.8500     1.4208 H       
  38 H38            3.8809     4.7308    -0.0783 H       
  39 H39            2.7215     5.0023    -1.4050 H       
  40 H40            4.8661     0.0925    -0.0045 H       
  41 H41            7.2197     1.7471    -0.5046 H       
  42 H42            6.8758    -0.9420     2.0731 H       
  43 H43            6.8497     0.1772     3.4569 H       
  44 H44            5.4747     0.1260     2.3277 H       
  45 H45            9.1611     0.3428    -0.9339 H       
  46 H46            9.2168     1.8053     1.1120 H       
  47 H47            9.0307     1.0828     2.7280 H       
  48 H48            9.0674     0.0402     1.2859 H       
  49 H49            5.6939     2.5859     1.9492 H       
  50 H50            7.0689     2.6371     3.0784 H       
  51 H51            7.2511     3.2704     1.4249 H       
  52 H52            9.0714    -2.4760    -0.7831 H       
  53 H53            8.4172    -1.9776    -2.3617 H       
  54 H54           10.0852    -1.5474    -1.9136 H       
  55 H55           -1.1106    -2.3075    -1.9132 H       
  56 H56           -1.1359     1.6188     1.0821 H       
@<TRIPOS>BOND
   1    1    2 ar
   2    1    3 1
   3    1   28 ar
   4    2   25 ar
   5    2   31 1
   6    3    4 1
   7    3    7 2
   8    4    5 1
   9    4    8 1
  10    5    6 2
  11    5   12 1
  12    6    7 1
  13    6   13 1
  14    8    9 1
  15    8   32 1
  16    8   33 1
  17    9   10 1
  18    9   34 1
  19    9   35 1
  20   10   11 1
  21   11   12 1
  22   11   36 1
  23   11   37 1
  24   12   38 1
  25   12   39 1
  26   13   14 2
  27   13   15 am
  28   15   16 1
  29   15   40 1
  30   16   21 1
  31   16   17 1
  32   16   41 1
  33   17   19 am
  34   17   20 2
  35   18   21 1
  36   18   42 1
  37   18   43 1
  38   18   44 1
  39   19   24 1
  40   19   45 1
  41   21   22 1
  42   21   23 1
  43   22   46 1
  44   22   47 1
  45   22   48 1
  46   23   49 1
  47   23   50 1
  48   23   51 1
  49   24   52 1
  50   24   53 1
  51   24   54 1
  52   25   26 ar
  53   25   55 1
  54   26   27 ar
  55   26   29 1
  56   27   28 ar
  57   27   30 1
  58   28   56 1

#	End of record

