#	Name: ASD01150692
#	Creating user name:	WinNT
#	Creation time:	15. 06. 2019 19:04

#	Modifying user name:	WinNT
#	Modification time:	15. 06. 2019 19:04

#	Program:	/corina/corina34_cracker 3.40 0067  02.08.2006

@<TRIPOS>MOLECULE
ASD01150692
  32   34    0    0    0
SMALL
NO_CHARGES


@<TRIPOS>ATOM
   1 C1             0.0031     1.4619     0.0138 C.2     
   2 C2            -0.4251     1.0427    -1.3689 C.3     
   3 F3            -1.5650     0.2366    -1.2798 F       
   4 F4            -0.7159     2.1789    -2.1316 F       
   5 F5             0.6082     0.3234    -1.9790 F       
   6 C6             3.5385     3.7064     0.5401 C.ar    
   7 C7             2.3459     4.4119     0.3413 C.ar    
   8 C8             1.1458     3.6762     0.1621 C.ar    
   9 C9             1.2131     2.2700     0.1930 C.ar    
  10 C10            2.4562     1.6557     0.3985 C.ar    
  11 N11            3.5417     2.3693     0.5598 N.ar    
  12 C12            2.5540     5.8483     0.3535 C.2     
  13 C13            3.8045     6.2253     0.5458 C.2     
  14 S14            4.8666     4.8449     0.7416 S.3     
  15 C15           -0.1433     4.3688    -0.0512 C.ar    
  16 C16           -0.3467     5.1326    -1.2018 C.ar    
  17 C17           -1.5517     5.7758    -1.3949 C.ar    
  18 C18           -2.5575     5.6651    -0.4511 C.ar    
  19 C19           -2.3624     4.9096     0.6915 C.ar    
  20 C20           -1.1641     4.2570     0.8943 C.ar    
  21 C21            2.5442     0.1517     0.4346 C.3     
  22 Cl22           4.3293     7.8790     0.6041 Cl      
  23 O23           -0.6563     1.1349     0.9783 O.2     
  24 H24            1.7483     6.5541     0.2156 H       
  25 H25            0.4378     5.2201    -1.9389 H       
  26 H26           -1.7102     6.3674    -2.2844 H       
  27 H27           -3.4989     6.1710    -0.6070 H       
  28 H28           -3.1514     4.8275     1.4244 H       
  29 H29           -1.0146     3.6639     1.7845 H       
  30 H30            2.6377    -0.2313    -0.5817 H       
  31 H31            3.4155    -0.1474     1.0172 H       
  32 H32            1.6430    -0.2541     0.8943 H       
@<TRIPOS>BOND
   1    1    2 1
   2    1    9 1
   3    1   23 2
   4    2    3 1
   5    2    4 1
   6    2    5 1
   7    6    7 ar
   8    6   11 ar
   9    6   14 1
  10    7    8 ar
  11    7   12 1
  12    8    9 ar
  13    8   15 1
  14    9   10 ar
  15   10   11 ar
  16   10   21 1
  17   12   13 2
  18   12   24 1
  19   13   14 1
  20   13   22 1
  21   15   16 ar
  22   15   20 ar
  23   16   17 ar
  24   16   25 1
  25   17   18 ar
  26   17   26 1
  27   18   19 ar
  28   18   27 1
  29   19   20 ar
  30   19   28 1
  31   20   29 1
  32   21   30 1
  33   21   31 1
  34   21   32 1

#	End of record

