#	Name: ASD04590044
#	Creating user name:	WinNT
#	Creation time:	15. 06. 2019 20:50

#	Modifying user name:	WinNT
#	Modification time:	15. 06. 2019 20:50

#	Program:	/corina/corina34_cracker 3.40 0067  02.08.2006

@<TRIPOS>MOLECULE
ASD04590044
  33   35    0    0    0
SMALL
NO_CHARGES


@<TRIPOS>ATOM
   1 N1            -0.0768     1.2682    -0.0494 N.pl3   
   2 N2            -0.0362    -0.0145     0.0020 N.2     
   3 C3             1.1932    -0.4418    -0.2151 C.2     
   4 C4             2.0018     0.7054    -0.4238 C.2     
   5 C5             1.1595     1.7668    -0.3105 C.2     
   6 C6             1.6421    -1.8461    -0.2362 C.2     
   7 O7             2.8105    -2.1079    -0.4488 O.2     
   8 N8             0.7574    -2.8397    -0.0200 N.am    
   9 C9             1.1620    -4.1745    -0.1363 C.ar    
  10 C10            2.4400    -4.5504     0.2561 C.ar    
  11 C11            2.8370    -5.8682     0.1409 C.ar    
  12 C12            1.9620    -6.8143    -0.3658 C.ar    
  13 C13            0.6872    -6.4416    -0.7576 C.ar    
  14 C14            0.2841    -5.1259    -0.6388 C.ar    
  15 F15            2.3526    -8.1026    -0.4784 F       
  16 N16            3.3786     0.7378    -0.6900 N.pl3   
  17 C17            4.0234     1.9565    -0.8705 C.ar    
  18 C18            5.3927     1.9912    -1.1354 C.ar    
  19 N19            3.3376     3.0893    -0.7968 N.ar    
  20 N20            5.9997     3.1506    -1.3064 N.ar    
  21 C21            5.3110     4.2778    -1.2267 C.ar    
  22 C22            3.9545     4.2466    -0.9696 C.ar    
  23 Cl23           6.2963     0.5126    -1.2394 Cl      
  24 H24           -0.8759     1.8036     0.0760 H       
  25 H25            1.4234     2.8093    -0.4100 H       
  26 H26           -0.1596    -2.6297     0.2161 H       
  27 H27            3.1230    -3.8127     0.6506 H       
  28 H28            3.8308    -6.1610     0.4460 H       
  29 H29            0.0063    -7.1809    -1.1529 H       
  30 H30           -0.7117    -4.8365    -0.9404 H       
  31 H31            3.8809    -0.0900    -0.7482 H       
  32 H32            5.8107     5.2249    -1.3671 H       
  33 H33            3.3961     5.1691    -0.9096 H       
@<TRIPOS>BOND
   1    1    2 1
   2    1    5 1
   3    1   24 1
   4    2    3 2
   5    3    4 1
   6    3    6 1
   7    4    5 2
   8    4   16 1
   9    5   25 1
  10    6    7 2
  11    6    8 am
  12    8    9 1
  13    8   26 1
  14    9   10 ar
  15    9   14 ar
  16   10   11 ar
  17   10   27 1
  18   11   12 ar
  19   11   28 1
  20   12   13 ar
  21   12   15 1
  22   13   14 ar
  23   13   29 1
  24   14   30 1
  25   16   17 1
  26   16   31 1
  27   17   18 ar
  28   17   19 ar
  29   18   20 ar
  30   18   23 1
  31   19   22 ar
  32   20   21 ar
  33   21   22 ar
  34   21   32 1
  35   22   33 1

#	End of record

