#	Name: ASD03740188
#	Creating user name:	WinNT
#	Creation time:	15. 06. 2019 20:46

#	Modifying user name:	WinNT
#	Modification time:	15. 06. 2019 20:46

#	Program:	/corina/corina34_cracker 3.40 0067  02.08.2006

@<TRIPOS>MOLECULE
ASD03740188
  66   70    0    0    0
SMALL
NO_CHARGES


@<TRIPOS>ATOM
   1 C1            -0.0270     1.4585    -0.6619 C.ar    
   2 C2            -0.0117     0.0824    -0.9183 C.ar    
   3 C3            -1.1766    -0.6183    -1.0263 C.ar    
   4 C4            -2.4008     0.0319    -0.8817 C.ar    
   5 C5            -2.4296     1.4164    -0.6235 C.ar    
   6 C6            -1.2323     2.1263    -0.5090 C.ar    
   7 N7            -3.7050    -0.3873    -0.9342 N.pl3   
   8 N8            -4.5487     0.7059    -0.7143 N.2     
   9 C9            -3.8419     1.7869    -0.5270 C.2     
  10 O10           -4.3297     3.0326    -0.2860 O.3     
  11 C11           -4.1450    -1.7625    -1.1823 C.3     
  12 C12           -4.2683    -2.4948     0.1291 C.ar    
  13 C13           -5.4667    -2.4809     0.8181 C.ar    
  14 C14           -5.5803    -3.1523     2.0209 C.ar    
  15 C15           -4.4945    -3.8383     2.5352 C.ar    
  16 C16           -3.2954    -3.8518     1.8451 C.ar    
  17 C17           -3.1846    -3.1847     0.6397 C.ar    
  18 C18           -5.7508     3.1737    -0.2330 C.3     
  19 C19           -6.1081     4.6351     0.0456 C.3     
  20 Cl20          -4.6364    -4.6813     4.0461 Cl      
  21 C21           -7.6295     4.7862     0.1024 C.3     
  22 N22           -7.9758     6.2077     0.2340 N.3     
  23 C23           -7.3145     6.8073     1.4126 C.3     
  24 C24           -9.4329     6.3860     0.3720 C.3     
  25 C25           -9.6770     7.1538     1.6881 C.3     
  26 C26           -8.3197     7.8635     1.9356 C.3     
  27 C27           -6.0019     7.4782     1.0029 C.3     
  28 C28            1.2511     2.2037    -0.5473 C.ar    
  29 C29            1.2500     3.5719    -0.2927 C.ar    
  30 N30            2.3832     4.2375    -0.1897 N.ar    
  31 C31            3.5562     3.6406    -0.3224 C.ar    
  32 C32            3.6380     2.2768    -0.5782 C.ar    
  33 C33            2.4746     1.5398    -0.6879 C.ar    
  34 O34            4.6947     4.3695    -0.2077 O.3     
  35 C35            4.5470     5.7664     0.0550 C.3     
  36 H36            0.9324    -0.4296    -1.0321 H       
  37 H37           -1.1505    -1.6797    -1.2247 H       
  38 H38           -1.2455     3.1879    -0.3112 H       
  39 H39           -5.1128    -1.7495    -1.6835 H       
  40 H40           -3.4154    -2.2691    -1.8141 H       
  41 H41           -6.3141    -1.9451     0.4167 H       
  42 H42           -6.5165    -3.1412     2.5593 H       
  43 H43           -2.4475    -4.3871     2.2461 H       
  44 H44           -2.2487    -3.1951     0.1009 H       
  45 H45           -6.1819     2.8697    -1.1868 H       
  46 H46           -6.1489     2.5442     0.5628 H       
  47 H47           -5.6769     4.9390     0.9995 H       
  48 H48           -5.7099     5.2645    -0.7502 H       
  49 H49           -8.0686     4.3885    -0.8126 H       
  50 H50           -8.0174     4.2368     0.9602 H       
  51 H51           -7.1305     6.0473     2.1720 H       
  52 H52           -9.8174     6.9617    -0.4700 H       
  53 H53           -9.9232     5.4134     0.4137 H       
  54 H54          -10.4769     7.8840     1.5657 H       
  55 H55           -9.9047     6.4636     2.5004 H       
  56 H56           -8.1673     8.0552     2.9977 H       
  57 H57           -8.2511     8.7865     1.3600 H       
  58 H58           -6.2066     8.2619     0.2735 H       
  59 H59           -5.5272     7.9147     1.8817 H       
  60 H60           -5.3367     6.7359     0.5617 H       
  61 H61            0.3113     4.0937    -0.1786 H       
  62 H62            4.6001     1.7980    -0.6854 H       
  63 H63            2.5086     0.4787    -0.8862 H       
  64 H64            3.9824     6.2305    -0.7537 H       
  65 H65            4.0146     5.9049     0.9960 H       
  66 H66            5.5315     6.2293     0.1230 H       
@<TRIPOS>BOND
   1    1    2 ar
   2    1   28 1
   3    1    6 ar
   4    2    3 ar
   5    2   36 1
   6    3    4 ar
   7    3   37 1
   8    4    5 ar
   9    4    7 1
  10    5    6 ar
  11    5    9 1
  12    6   38 1
  13    7    8 1
  14    7   11 1
  15    8    9 2
  16    9   10 1
  17   10   18 1
  18   11   12 1
  19   11   39 1
  20   11   40 1
  21   12   13 ar
  22   12   17 ar
  23   13   14 ar
  24   13   41 1
  25   14   15 ar
  26   14   42 1
  27   15   16 ar
  28   15   20 1
  29   16   17 ar
  30   16   43 1
  31   17   44 1
  32   18   19 1
  33   18   45 1
  34   18   46 1
  35   19   21 1
  36   19   47 1
  37   19   48 1
  38   21   22 1
  39   21   49 1
  40   21   50 1
  41   22   24 1
  42   22   23 1
  43   23   27 1
  44   23   26 1
  45   23   51 1
  46   24   25 1
  47   24   52 1
  48   24   53 1
  49   25   26 1
  50   25   54 1
  51   25   55 1
  52   26   56 1
  53   26   57 1
  54   27   58 1
  55   27   59 1
  56   27   60 1
  57   28   29 ar
  58   28   33 ar
  59   29   30 ar
  60   29   61 1
  61   30   31 ar
  62   31   32 ar
  63   31   34 1
  64   32   33 ar
  65   32   62 1
  66   33   63 1
  67   34   35 1
  68   35   64 1
  69   35   65 1
  70   35   66 1

#	End of record

