#	Name: ASD01811623
#	Creating user name:	WinNT
#	Creation time:	15. 06. 2019 19:27

#	Modifying user name:	WinNT
#	Modification time:	15. 06. 2019 19:27

#	Program:	/corina/corina34_cracker 3.40 0067  02.08.2006

@<TRIPOS>MOLECULE
ASD01811623
  67   71    0    0    0
SMALL
NO_CHARGES


@<TRIPOS>ATOM
   1 C1            -0.1816     1.1904     0.5922 C.2     
   2 N2            -0.2943    -0.1391     0.8730 N.pl3   
   3 C3             0.9751    -0.6147     1.0732 C.2     
   4 C4             1.8186     0.4224     0.9119 C.2     
   5 N5             1.0914     1.5119     0.6192 N.2     
   6 C6             3.2489    -0.0290     1.1200 C.3     
   7 C7             3.2029    -1.5686     1.0062 C.3     
   8 C8             1.7425    -1.8747     1.4052 C.3     
   9 C9             3.4792    -2.0127    -0.4071 C.2     
  10 O10            2.6371    -2.6296    -1.0245 O.2     
  11 N11            4.6622    -1.7243    -0.9849 N.am    
  12 C12            4.9308    -2.1561    -2.3589 C.3     
  13 C13           -1.3015     2.1119     0.3005 C.ar    
  14 C14           -1.0629     3.4807     0.1600 C.ar    
  15 C15           -2.1069     4.3421    -0.1127 C.ar    
  16 C16           -3.3928     3.8574    -0.2483 C.ar    
  17 C17           -3.6451     2.4909    -0.1102 C.ar    
  18 C18           -2.5950     1.6155     0.1598 C.ar    
  19 C19           -4.5261     4.8051    -0.5455 C.3     
  20 C20            0.3371     4.0188     0.3068 C.3     
  21 C21           -5.0226     1.9734    -0.2557 C.2     
  22 O22           -5.7000     2.3075    -1.2081 O.2     
  23 N23           -5.5271     1.1312     0.6677 N.am    
  24 C24           -6.8447     0.5106     0.4745 C.3     
  25 C25           -7.7082     0.7927     1.7080 C.3     
  26 C26           -6.9690     0.3206     2.9621 C.3     
  27 C27           -5.6563     1.0944     3.1042 C.3     
  28 C28           -4.7671     0.8114     1.8838 C.3     
  29 C29           -7.8299     0.5655     4.1745 C.ar    
  30 C30           -8.2151    -0.4978     4.9717 C.ar    
  31 C31           -9.0031    -0.2808     6.0829 C.ar    
  32 C32           -9.4116     1.0155     6.4028 C.ar    
  33 C33           -9.0188     2.0840     5.5941 C.ar    
  34 C34           -8.2267     1.8532     4.4885 C.ar    
  35 C35          -10.2301     1.2482     7.5545 C.1     
  36 N36          -10.8793     1.4327     8.4683 N.1     
  37 H37           -1.1169    -0.6508     0.9223 H       
  38 H38            3.8942     0.3888     0.3472 H       
  39 H39            3.5997     0.2674     2.1085 H       
  40 H40            3.9023    -2.0317     1.7023 H       
  41 H41            1.6781    -2.0875     2.4723 H       
  42 H42            1.3595    -2.7152     0.8265 H       
  43 H43            5.3357    -1.2310    -0.4911 H       
  44 H44            5.9302    -1.8344    -2.6520 H       
  45 H45            4.8671    -3.2426    -2.4173 H       
  46 H46            4.1950    -1.7123    -3.0296 H       
  47 H47           -1.9170     5.3999    -0.2201 H       
  48 H48           -2.7841     0.5572     0.2631 H       
  49 H49           -4.6000     4.9569    -1.6223 H       
  50 H50           -5.4597     4.3832    -0.1732 H       
  51 H51           -4.3385     5.7607    -0.0559 H       
  52 H52            0.8723     3.9007    -0.6354 H       
  53 H53            0.2943     5.0755     0.5705 H       
  54 H54            0.8571     3.4692     1.0914 H       
  55 H55           -7.3216     0.9334    -0.4098 H       
  56 H56           -6.7269    -0.5657     0.3493 H       
  57 H57           -7.9006     1.8632     1.7804 H       
  58 H58           -8.6539     0.2578     1.6202 H       
  59 H59           -6.7551    -0.7449     2.8780 H       
  60 H60           -5.8679     2.1620     3.1634 H       
  61 H61           -5.1415     0.7743     4.0100 H       
  62 H62           -4.4833    -0.2409     1.8712 H       
  63 H63           -3.8727     1.4327     1.9297 H       
  64 H64           -7.8984    -1.5000     4.7231 H       
  65 H65           -9.3036    -1.1117     6.7039 H       
  66 H66           -9.3313     3.0891     5.8358 H       
  67 H67           -7.9188     2.6792     3.8645 H       
@<TRIPOS>BOND
   1    1    2 1
   2    1    5 2
   3    1   13 1
   4    2    3 1
   5    2   37 1
   6    3    4 2
   7    3    8 1
   8    4    5 1
   9    4    6 1
  10    6    7 1
  11    6   38 1
  12    6   39 1
  13    7    8 1
  14    7    9 1
  15    7   40 1
  16    8   41 1
  17    8   42 1
  18    9   10 2
  19    9   11 am
  20   11   12 1
  21   11   43 1
  22   12   44 1
  23   12   45 1
  24   12   46 1
  25   13   14 ar
  26   13   18 ar
  27   14   15 ar
  28   14   20 1
  29   15   16 ar
  30   15   47 1
  31   16   17 ar
  32   16   19 1
  33   17   18 ar
  34   17   21 1
  35   18   48 1
  36   19   49 1
  37   19   50 1
  38   19   51 1
  39   20   52 1
  40   20   53 1
  41   20   54 1
  42   21   22 2
  43   21   23 am
  44   23   24 1
  45   23   28 1
  46   24   25 1
  47   24   55 1
  48   24   56 1
  49   25   26 1
  50   25   57 1
  51   25   58 1
  52   26   27 1
  53   26   29 1
  54   26   59 1
  55   27   28 1
  56   27   60 1
  57   27   61 1
  58   28   62 1
  59   28   63 1
  60   29   30 ar
  61   29   34 ar
  62   30   31 ar
  63   30   64 1
  64   31   32 ar
  65   31   65 1
  66   32   33 ar
  67   32   35 1
  68   33   34 ar
  69   33   66 1
  70   34   67 1
  71   35   36 3

#	End of record

