#	Name: ASD05430163
#	Creating user name:	WinNT
#	Creation time:	15. 06. 2019 20:59

#	Modifying user name:	WinNT
#	Modification time:	15. 06. 2019 20:59

#	Program:	/corina/corina34_cracker 3.40 0067  02.08.2006

@<TRIPOS>MOLECULE
ASD05430163
  71   76    0    0    0
SMALL
NO_CHARGES


@<TRIPOS>ATOM
   1 C1            -0.0102     1.3701    -0.1564 C.ar    
   2 C2             0.0204    -0.0143    -0.3187 C.ar    
   3 C3             1.2358    -0.6829    -0.3832 C.ar    
   4 C4             2.4181     0.0185    -0.2867 C.ar    
   5 C5             2.3956     1.4080    -0.1237 C.ar    
   6 C6             1.1713     2.0810    -0.0592 C.ar    
   7 O7             4.8750     0.1413     0.2364 O.3     
   8 C8             4.8323     1.4969     0.0682 C.2     
   9 C9             3.6562     2.1589    -0.0200 C.2     
  10 C10            6.0942    -0.4217     0.7139 C.3     
  11 C11            6.9252     0.5209     1.5852 C.3     
  12 N12            7.1377     1.7721     0.8523 N.pl3   
  13 C13            6.1220     2.2082    -0.0128 C.2     
  14 N14           -1.1801    -0.7340    -0.4166 N.pl3   
  15 C15           -1.5011    -1.6558    -1.3787 C.2     
  16 C16           -2.7409    -2.0996    -1.0956 C.2     
  17 N17           -3.1694    -1.4692     0.0077 N.2     
  18 C18           -2.2409    -0.6528     0.4273 C.2     
  19 C19           -3.5134    -3.1263    -1.8832 C.3     
  20 C20            8.3446     2.5771     1.0234 C.3     
  21 C21            8.7663     3.1360    -0.3404 C.3     
  22 N22            7.6037     3.7286    -1.0060 N.pl3   
  23 N23            6.3309     3.1646    -0.8591 N.2     
  24 C24            8.0620     3.7154     1.9697 C.ar    
  25 C25            9.0623     4.6160     2.2850 C.ar    
  26 C26            6.8011     3.8614     2.5174 C.ar    
  27 C27            6.5406     4.9054     3.3846 C.ar    
  28 C28            7.5431     5.8050     3.7053 C.ar    
  29 C29            8.8042     5.6605     3.1523 C.ar    
  30 F30            7.2895     6.8259     4.5529 F       
  31 C31           -1.1587     3.4401     0.0681 C.3     
  32 O32           -1.2021     2.0216    -0.0994 O.3     
  33 C33            9.4668     1.7043     1.5887 C.3     
  34 C34            5.9169    -1.8166     1.3344 C.3     
  35 N35            7.1549    -2.1847     0.6116 N.3     
  36 C36            6.9169    -1.1147    -0.3830 C.3     
  37 C37           -2.5848     3.9925     0.1096 C.3     
  38 C38            7.7749     4.9249    -1.8341 C.3     
  39 H39            1.2545    -1.7554    -0.5089 H       
  40 H40            3.3618    -0.5042    -0.3364 H       
  41 H41            1.1490     3.1535     0.0662 H       
  42 H42            3.6426     3.2388    -0.0142 H       
  43 H43            6.3917     0.7267     2.5132 H       
  44 H44            7.8873     0.0598     1.8083 H       
  45 H45           -0.8792    -1.9668    -2.2051 H       
  46 H46           -2.3080    -0.0145     1.2959 H       
  47 H47           -3.2995    -4.1209    -1.4916 H       
  48 H48           -4.5808    -2.9234    -1.7961 H       
  49 H49           -3.2186    -3.0774    -2.9314 H       
  50 H50            9.5322     3.8986    -0.1994 H       
  51 H51            9.1654     2.3297    -0.9558 H       
  52 H52           10.0460     4.5031     1.8536 H       
  53 H53            6.0193     3.1596     2.2672 H       
  54 H54            5.5553     5.0197     3.8118 H       
  55 H55            9.5871     6.3614     3.4019 H       
  56 H56           -0.6487     3.6803     1.0010 H       
  57 H57           -0.6196     3.8882    -0.7666 H       
  58 H58            9.6722     0.8851     0.8996 H       
  59 H59           10.3665     2.3064     1.7157 H       
  60 H60            9.1613     1.2995     2.5535 H       
  61 H61            6.0207    -1.8313     2.4194 H       
  62 H62            5.0299    -2.3441     0.9835 H       
  63 H63            7.9719    -1.9852     1.1689 H       
  64 H64            6.3246    -1.4353    -1.2400 H       
  65 H65            7.8177    -0.5703    -0.6666 H       
  66 H66           -2.5518     5.0745     0.2374 H       
  67 H67           -3.0949     3.7523    -0.8232 H       
  68 H68           -3.1239     3.5444     0.9443 H       
  69 H69            7.9857     4.6284    -2.8617 H       
  70 H70            6.8614     5.5189    -1.8075 H       
  71 H71            8.6049     5.5174    -1.4494 H       
@<TRIPOS>BOND
   1    1    2 ar
   2    1    6 ar
   3    1   32 1
   4    2    3 ar
   5    2   14 1
   6    3    4 ar
   7    3   39 1
   8    4    5 ar
   9    4   40 1
  10    5    6 ar
  11    5    9 1
  12    6   41 1
  13    7    8 1
  14    7   10 1
  15    8    9 2
  16    8   13 1
  17    9   42 1
  18   10   11 1
  19   10   34 1
  20   10   36 1
  21   11   12 1
  22   11   43 1
  23   11   44 1
  24   12   13 1
  25   12   20 1
  26   13   23 2
  27   14   15 1
  28   14   18 1
  29   15   16 2
  30   15   45 1
  31   16   17 1
  32   16   19 1
  33   17   18 2
  34   18   46 1
  35   19   47 1
  36   19   48 1
  37   19   49 1
  38   20   21 1
  39   20   24 1
  40   20   33 1
  41   21   22 1
  42   21   50 1
  43   21   51 1
  44   22   23 1
  45   22   38 1
  46   24   25 ar
  47   24   26 ar
  48   25   29 ar
  49   25   52 1
  50   26   27 ar
  51   26   53 1
  52   27   28 ar
  53   27   54 1
  54   28   29 ar
  55   28   30 1
  56   29   55 1
  57   31   32 1
  58   31   37 1
  59   31   56 1
  60   31   57 1
  61   33   58 1
  62   33   59 1
  63   33   60 1
  64   34   35 1
  65   34   61 1
  66   34   62 1
  67   35   36 1
  68   35   63 1
  69   36   64 1
  70   36   65 1
  71   37   66 1
  72   37   67 1
  73   37   68 1
  74   38   69 1
  75   38   70 1
  76   38   71 1

#	End of record

