#	Name: ASD02408100
#	Creating user name:	WinNT
#	Creation time:	15. 06. 2019 20:21

#	Modifying user name:	WinNT
#	Modification time:	15. 06. 2019 20:21

#	Program:	/corina/corina34_cracker 3.40 0067  02.08.2006

@<TRIPOS>MOLECULE
ASD02408100
  37   39    0    0    0
SMALL
NO_CHARGES


@<TRIPOS>ATOM
   1 C1             0.2743     0.9477    -0.1125 C.ar    
   2 C2             0.4361    -0.4171    -0.2557 C.ar    
   3 C3             1.4804     1.8508    -0.0839 C.3     
   4 C4             1.6649     2.4855    -1.4382 C.2     
   5 N5             2.6946     3.3338    -1.6250 N.am    
   6 N6             0.8247     2.1909    -2.3928 N.2     
   7 C7             0.9397     2.7241    -3.6159 C.2     
   8 C8             1.9883     3.6211    -3.8786 C.2     
   9 C9             2.8900     3.9198    -2.8250 C.2     
  10 N10            0.0425     2.3970    -4.6028 N.pl3   
  11 C11           -1.3824     2.0968    -4.4002 C.3     
  12 O12            3.8175     4.6914    -2.9982 O.2     
  13 C13           -0.6703    -1.2459    -0.2824 C.ar    
  14 C14           -1.9392    -0.7105    -0.1658 C.ar    
  15 C15           -2.1035     0.6544    -0.0220 C.ar    
  16 C16           -0.9968     1.4858    -0.0009 C.ar    
  17 F17           -1.1561     2.8199     0.1400 F       
  18 C18           -1.9811     1.7617    -5.7825 C.3     
  19 C19           -0.7365     1.3399    -6.6073 C.3     
  20 C20            0.3471     2.2950    -6.0416 C.3     
  21 C21            2.1455     4.2125    -5.1733 C.1     
  22 N22            2.2702     4.6816    -6.2003 N.1     
  23 H23            1.4271    -0.8365    -0.3472 H       
  24 H24            1.3339     2.6290     0.6651 H       
  25 H25            2.3658     1.2668     0.1673 H       
  26 H26            3.2999     3.5251    -0.8915 H       
  27 H27           -1.4899     1.2419    -3.7326 H       
  28 H28           -1.8879     2.9653    -3.9779 H       
  29 H29           -0.5429    -2.3125    -0.3947 H       
  30 H30           -2.8027    -1.3588    -0.1875 H       
  31 H31           -3.0951     1.0726     0.0687 H       
  32 H32           -2.6905     0.9376    -5.7061 H       
  33 H33           -2.4547     2.6402    -6.2209 H       
  34 H34           -0.4791     0.2973    -6.4206 H       
  35 H35           -0.8943     1.5173    -7.6711 H       
  36 H36            0.2784     3.2722    -6.5195 H       
  37 H37            1.3404     1.8700    -6.1864 H       
@<TRIPOS>BOND
   1    1    2 ar
   2    1    3 1
   3    1   16 ar
   4    2   13 ar
   5    2   23 1
   6    3    4 1
   7    3   24 1
   8    3   25 1
   9    4    5 1
  10    4    6 2
  11    5    9 am
  12    5   26 1
  13    6    7 1
  14    7    8 2
  15    7   10 1
  16    8    9 1
  17    8   21 1
  18    9   12 2
  19   10   11 1
  20   10   20 1
  21   11   18 1
  22   11   27 1
  23   11   28 1
  24   13   14 ar
  25   13   29 1
  26   14   15 ar
  27   14   30 1
  28   15   16 ar
  29   15   31 1
  30   16   17 1
  31   18   19 1
  32   18   32 1
  33   18   33 1
  34   19   20 1
  35   19   34 1
  36   19   35 1
  37   20   36 1
  38   20   37 1
  39   21   22 3

#	End of record

