#	Name: ASD03330226
#	Creating user name:	WinNT
#	Creation time:	15. 06. 2019 20:36

#	Modifying user name:	WinNT
#	Modification time:	15. 06. 2019 20:36

#	Program:	/corina/corina34_cracker 3.40 0067  02.08.2006

@<TRIPOS>MOLECULE
ASD03330226
  53   55    0    0    0
SMALL
NO_CHARGES


@<TRIPOS>ATOM
   1 C1            -0.3308     1.8899    -0.5339 C.3     
   2 N2            -0.5205     0.4350    -0.4502 N.3     
   3 C3             0.0155    -0.2421    -1.6450 C.3     
   4 C4             1.4170     0.2612    -1.8751 C.2     
   5 N5             1.9230     1.3839    -1.2878 N.pl3   
   6 C6             1.1560     2.2310    -0.3703 C.3     
   7 C7             2.3965    -0.2583    -2.6561 C.2     
   8 N8             3.4822     0.5400    -2.5389 N.2     
   9 C9             3.2038     1.5275    -1.7176 C.2     
  10 C10            4.1295     2.6137    -1.3272 C.ar    
  11 C11            5.3028     2.8383    -2.0471 C.ar    
  12 C12            2.2963    -1.4740    -3.4830 C.2     
  13 O13            1.2604    -2.1108    -3.5049 O.2     
  14 O14            5.6100    -2.9774    -5.0749 O.2     
  15 C15            4.6281    -3.6682    -5.2468 C.2     
  16 C16            3.2529    -3.0886    -5.0370 C.3     
  17 N17            3.3526    -1.8801    -4.2150 N.am    
  18 C18            2.6367    -2.7344    -6.3919 C.3     
  19 C19            2.6165    -3.9775    -7.2836 C.3     
  20 C20            1.2065    -2.2314    -6.1858 C.3     
  21 C21            3.4707    -1.6402    -7.0611 C.3     
  22 N22            4.7668    -4.9542    -5.6254 N.am    
  23 C23            6.0975    -5.4919    -5.9192 C.3     
  24 N24            6.1271     3.8052    -1.6999 N.ar    
  25 C25            5.8824     4.5930    -0.6707 C.ar    
  26 C26            4.7401     4.4352     0.0935 C.ar    
  27 C27            3.8395     3.4366    -0.2331 C.ar    
  28 H28           -0.6796     2.2455    -1.5034 H       
  29 H29           -0.9031     2.3759     0.2563 H       
  30 H30           -0.1064     0.0642     0.3918 H       
  31 H31            0.0330    -1.3195    -1.4812 H       
  32 H32           -0.6060    -0.0102    -2.5099 H       
  33 H33            1.3215     3.2806    -0.6136 H       
  34 H34            1.4671     2.0373     0.6562 H       
  35 H35            5.5376     2.2138    -2.8963 H       
  36 H36            2.6232    -3.8208    -4.5317 H       
  37 H37            4.1788    -1.3721    -4.1975 H       
  38 H38            2.0066    -4.7504    -6.8158 H       
  39 H39            2.1950    -3.7208    -8.2554 H       
  40 H40            3.6335    -4.3471    -7.4148 H       
  41 H41            1.2209    -1.3457    -5.5505 H       
  42 H42            0.7675    -1.9791    -7.1510 H       
  43 H43            0.6123    -3.0109    -5.7090 H       
  44 H44            4.4896    -1.9986    -7.2080 H       
  45 H45            3.0317    -1.3879    -8.0264 H       
  46 H46            3.4851    -0.7546    -6.4259 H       
  47 H47            3.9855    -5.5238    -5.7034 H       
  48 H48            6.5452    -4.9269    -6.7368 H       
  49 H49            6.7267    -5.4090    -5.0330 H       
  50 H50            6.0107    -6.5398    -6.2065 H       
  51 H51            6.5854     5.3737    -0.4202 H       
  52 H52            4.5513     5.0868     0.9338 H       
  53 H53            2.9397     3.2911     0.3463 H       
@<TRIPOS>BOND
   1    1    2 1
   2    1    6 1
   3    1   28 1
   4    1   29 1
   5    2    3 1
   6    2   30 1
   7    3    4 1
   8    3   31 1
   9    3   32 1
  10    4    5 1
  11    4    7 2
  12    5    6 1
  13    5    9 1
  14    6   33 1
  15    6   34 1
  16    7    8 1
  17    7   12 1
  18    8    9 2
  19    9   10 1
  20   10   11 ar
  21   10   27 ar
  22   11   24 ar
  23   11   35 1
  24   12   13 2
  25   12   17 am
  26   14   15 2
  27   15   22 am
  28   15   16 1
  29   16   17 1
  30   16   18 1
  31   16   36 1
  32   17   37 1
  33   18   19 1
  34   18   20 1
  35   18   21 1
  36   19   38 1
  37   19   39 1
  38   19   40 1
  39   20   41 1
  40   20   42 1
  41   20   43 1
  42   21   44 1
  43   21   45 1
  44   21   46 1
  45   22   23 1
  46   22   47 1
  47   23   48 1
  48   23   49 1
  49   23   50 1
  50   24   25 ar
  51   25   26 ar
  52   25   51 1
  53   26   27 ar
  54   26   52 1
  55   27   53 1

#	End of record

