#	Name: ASD02120006
#	Creating user name:	WinNT
#	Creation time:	15. 06. 2019 20:18

#	Modifying user name:	WinNT
#	Modification time:	15. 06. 2019 20:18

#	Program:	/corina/corina34_cracker 3.40 0067  02.08.2006

@<TRIPOS>MOLECULE
ASD02120006
 222  226    0    0    0
SMALL
NO_CHARGES


@<TRIPOS>ATOM
   1 C1            -3.1204     1.1671    -4.5334 C.3     
   2 C2            -3.1670    -0.3386    -4.5759 C.2     
   3 C3            -2.3309     1.6180    -3.3029 C.3     
   4 C4            -2.4378     1.6922    -5.7980 C.3     
   5 C5            -2.8946     2.9462    -2.7942 C.3     
   6 C6            -1.8299     3.6683    -1.9656 C.3     
   7 C7            -0.6258     2.7455    -1.7668 C.3     
   8 C8             0.1064     3.1327    -0.4805 C.3     
   9 C9             1.5510     2.6333    -0.5454 C.3     
  10 C10            2.3437     3.2396     0.5837 C.2     
  11 C11            3.5778     2.8556     0.7981 C.2     
  12 C12            4.2051     1.8074    -0.0843 C.3     
  13 O13           -2.8676    -0.9920    -3.5990 O.2     
  14 C14            1.2524    -7.5198    -7.4504 C.3     
  15 C15            2.7388    -7.3602    -7.6394 C.2     
  16 O16            3.1788    -6.8652    -8.6554 O.2     
  17 N17            8.0622    -0.8021    -1.3053 N.3     
  18 C18            7.1428    -0.3977    -0.2333 C.3     
  19 C19            7.9092    -0.2472     1.0555 C.2     
  20 O20            7.5956     0.6134     1.8506 O.2     
  21 C21            6.4903     0.9374    -0.5975 C.3     
  22 C22            6.0597    -1.4645    -0.0610 C.3     
  23 C23            5.5372     1.3614     0.5218 C.3     
  24 C24            0.9385    -7.6780    -5.9613 C.3     
  25 C25            1.5426    -6.5291    -5.1958 C.2     
  26 C26            2.8454    -6.3430    -4.9312 C.2     
  27 N27            3.0157    -5.1903    -4.2139 N.pl3   
  28 C28            1.7957    -4.5913    -3.9939 C.ar    
  29 C29            0.8201    -5.4002    -4.6046 C.ar    
  30 C30            1.4037    -3.4292    -3.3371 C.ar    
  31 C31            0.0700    -3.0884    -3.2869 C.ar    
  32 C32           -0.8896    -3.8933    -3.8858 C.ar    
  33 C33           -0.5261    -5.0351    -4.5424 C.ar    
  34 C34          -13.7404    -1.7611     0.7517 C.2     
  35 C35          -14.4027    -3.0746     1.0792 C.3     
  36 O36          -13.1009    -1.1763     1.6002 O.2     
  37 C37          -13.7653     1.1324     0.1170 C.3     
  38 C38          -13.2148     0.0404    -0.8024 C.3     
  39 C39          -11.7265    -0.0833    -0.6004 C.2     
  40 N40          -13.8586    -1.2365    -0.4841 N.am    
  41 O41          -11.2809    -0.9699     0.0970 O.2     
  42 C42          -15.2518     1.3445    -0.1763 C.3     
  43 C43          -15.8315     2.3455     0.8251 C.3     
  44 C44          -15.4189     1.8888    -1.5964 C.3     
  45 C45           -9.0430     1.3894     0.2919 C.3     
  46 C46           -9.4440     0.6710    -0.9981 C.3     
  47 C47           -8.7248     1.2961    -2.1656 C.2     
  48 N48          -10.8907     0.7912    -1.1945 N.am    
  49 O49           -9.3584     1.7932    -3.0724 O.2     
  50 C50           -9.7731     0.7547     1.4772 C.3     
  51 O51           -7.6318     1.2721     0.4835 O.3     
  52 C52           -6.5334     3.4152    -3.1001 C.3     
  53 C53           -6.6784     1.9106    -3.3369 C.3     
  54 C54           -5.3122     1.2900    -3.4760 C.2     
  55 N55           -7.3776     1.3029    -2.2019 N.am    
  56 O56           -4.9575     0.4252    -2.7033 O.2     
  57 C57           -7.8978     4.0549    -3.0834 C.ar    
  58 C58           -8.5931     4.1691    -1.8942 C.ar    
  59 C59           -9.8446     4.7559    -1.8788 C.ar    
  60 C60          -10.4007     5.2288    -3.0527 C.ar    
  61 C61           -9.7050     5.1154    -4.2419 C.ar    
  62 C62           -8.4516     4.5326    -4.2565 C.ar    
  63 N63           -4.4846     1.6960    -4.4592 N.am    
  64 C64            8.9746    -1.6959     3.6885 C.3     
  65 C65            9.6880    -0.9225     2.5776 C.3     
  66 C66           11.0813    -1.4687     2.4003 C.2     
  67 N67            8.9430    -1.0689     1.3247 N.am    
  68 O68           11.4188    -1.9343     1.3325 O.2     
  69 N69           11.9524    -1.4397     3.4284 N.am    
  70 C70            5.2385    -6.4675    -7.9074 C.3     
  71 C71            5.0256    -7.5987    -6.8994 C.3     
  72 C72            5.7006    -7.2487    -5.5982 C.2     
  73 N73            3.5811    -7.7785    -6.6562 N.am    
  74 O74            5.2281    -7.6107    -4.5415 O.2     
  75 C75            6.5535    -6.7341    -3.1985 C.3     
  76 C76            7.4618    -6.2175    -4.3160 C.3     
  77 C77            7.6243    -4.7225    -4.1891 C.2     
  78 N78            6.8523    -6.5182    -5.6293 N.am    
  79 O79            7.2792    -3.9984    -5.0922 O.2     
  80 C80            7.0499    -6.2042    -1.8518 C.3     
  81 C81            6.2751    -6.8595    -0.7376 C.2     
  82 O82            5.4109    -7.6705    -0.9953 O.2     
  83 N83            6.5425    -6.5443     0.5452 N.am    
  84 C84            7.3704    -1.9475    -3.7448 C.3     
  85 C85            8.3675    -2.6495    -2.8207 C.3     
  86 C86            8.2083    -4.1424    -2.9512 C.2     
  87 N87            8.1119    -2.2497    -1.4304 N.3     
  88 O88            8.5533    -4.8676    -2.0490 O.2     
  89 C89            5.9749    -1.9951    -3.1195 C.3     
  90 C90            4.9217    -2.0619    -4.2273 C.3     
  91 C91            5.8571    -3.2333    -2.2285 C.3     
  92 C92           -4.9879    -2.9375    -5.9595 C.3     
  93 C93           -3.5672    -2.4335    -5.6980 C.3     
  94 C94           -2.6422    -2.9512    -6.7693 C.2     
  95 N95           -3.5516    -0.9550    -5.7305 N.am    
  96 O96           -2.3248    -2.2437    -7.7018 O.2     
  97 C97           -0.2670    -3.5703    -8.0879 C.3     
  98 C98           -1.2684    -4.6779    -7.7540 C.3     
  99 C99           -0.5278    -5.9037    -7.2847 C.2     
 100 N100          -2.1677    -4.2229    -6.6758 N.am    
 101 O101          -0.9061    -6.5154    -6.3082 O.2     
 102 C102           0.4933    -3.9400    -9.3354 C.ar    
 103 C103          -0.1355    -3.8940   -10.5660 C.ar    
 104 C104           0.5593    -4.2324   -11.7111 C.ar    
 105 C105           1.8891    -4.6185   -11.6255 C.ar    
 106 C106           2.5177    -4.6638   -10.3896 C.ar    
 107 C107           1.8201    -4.3190    -9.2482 C.ar    
 108 O108           2.5746    -4.9523   -12.7505 O.3     
 109 N109           0.5749    -6.3142    -7.9747 N.am    
 110 H110          -2.4155     0.8639    -2.5204 H       
 111 H111          -1.2824     1.7473    -3.5712 H       
 112 H112          -2.9514     1.3021    -6.6768 H       
 113 H113          -2.4783     2.7814    -5.8072 H       
 114 H114          -1.3975     1.3671    -5.8110 H       
 115 H115          -3.1790     3.5689    -3.6424 H       
 116 H116          -3.7703     2.7555    -2.1737 H       
 117 H117          -1.5135     4.5711    -2.4880 H       
 118 H118          -2.2458     3.9372    -0.9946 H       
 119 H119          -0.9674     1.7130    -1.6938 H       
 120 H120           0.0520     2.8449    -2.6147 H       
 121 H121           0.1015     4.2173    -0.3720 H       
 122 H122          -0.3964     2.6799     0.3741 H       
 123 H123           1.5643     1.5470    -0.4563 H       
 124 H124           1.9938     2.9251    -1.4978 H       
 125 H125           1.8945     3.9913     1.2162 H       
 126 H126           4.1460     3.2905     1.6073 H       
 127 H127           3.5362     0.9503    -0.1621 H       
 128 H128           4.3786     2.2241    -1.0764 H       
 129 H129           0.9070    -8.3989    -7.9945 H       
 130 H130           7.8073    -0.3720    -2.1817 H       
 131 H131           7.2622     1.6964    -0.7244 H       
 132 H132           5.9325     0.8275    -1.5275 H       
 133 H133           6.4930    -2.4516    -0.2223 H       
 134 H134           5.6509    -1.4076     0.9479 H       
 135 H135           5.2636    -1.2943    -0.7857 H       
 136 H136           5.9772     2.1878     1.0801 H       
 137 H137           5.3673     0.5194     1.1928 H       
 138 H138          -0.1418    -7.6833    -5.8162 H       
 139 H139           1.3583    -8.6166    -5.5993 H       
 140 H140           3.6413    -7.0054    -5.2384 H       
 141 H141           3.8689    -4.8465    -3.9060 H       
 142 H142           2.1426    -2.7966    -2.8678 H       
 143 H143          -0.2323    -2.1860    -2.7762 H       
 144 H144          -1.9312    -3.6119    -3.8370 H       
 145 H145          -1.2781    -5.6564    -5.0060 H       
 146 H146         -15.4103    -2.8904     1.4520 H       
 147 H147         -14.4544    -3.6894     0.1807 H       
 148 H148         -13.8224    -3.5939     1.8419 H       
 149 H149         -13.6396     0.8296     1.1565 H       
 150 H150         -13.2240     2.0621    -0.0586 H       
 151 H151         -13.4200     0.3019    -1.8405 H       
 152 H152         -14.3701    -1.7043    -1.1627 H       
 153 H153         -15.7789     0.3946    -0.0869 H       
 154 H154         -15.3044     3.2954     0.7357 H       
 155 H155         -16.8905     2.4966     0.6161 H       
 156 H156         -15.7125     1.9577     1.8368 H       
 157 H157         -14.8918     2.8387    -1.6858 H       
 158 H158         -15.0060     1.1756    -2.3098 H       
 159 H159         -16.4780     2.0399    -1.8053 H       
 160 H160          -9.3136     2.4428     0.2203 H       
 161 H161          -9.1734    -0.3825    -0.9265 H       
 162 H162         -11.2472     1.5003    -1.7522 H       
 163 H163          -9.5025    -0.2988     1.5488 H       
 164 H164          -9.4875     1.2665     2.3962 H       
 165 H165         -10.8496     0.8442     1.3310 H       
 166 H166          -7.3192     0.3598     0.5560 H       
 167 H167          -6.0400     3.5866    -2.1434 H       
 168 H168          -5.9366     3.8530    -3.9003 H       
 169 H169          -7.2498     1.7397    -4.2493 H       
 170 H170          -6.8708     0.9053    -1.4766 H       
 171 H171          -8.1586     3.7996    -0.9770 H       
 172 H172         -10.3881     4.8445    -0.9498 H       
 173 H173         -11.3788     5.6866    -3.0409 H       
 174 H174         -10.1395     5.4847    -5.1590 H       
 175 H175          -7.9064     4.4474    -5.1849 H       
 176 H176          -4.7922     2.3383    -5.1177 H       
 177 H177           9.5289    -1.5870     4.6207 H       
 178 H178           7.9669    -1.3009     3.8167 H       
 179 H179           8.9199    -2.7507     3.4194 H       
 180 H180           9.7428     0.1323     2.8467 H       
 181 H181           9.1938    -1.7571     0.6889 H       
 182 H182          11.6825    -1.0673     4.2824 H       
 183 H183          12.8492    -1.7913     3.3142 H       
 184 H184           6.2799    -6.1468    -7.8791 H       
 185 H185           4.9947    -6.8225    -8.9087 H       
 186 H186           4.5925    -5.6274    -7.6525 H       
 187 H187           5.4472    -8.5232    -7.2940 H       
 188 H188           3.2487    -8.1751    -5.8358 H       
 189 H189           5.5337    -6.3899    -3.3708 H       
 190 H190           6.5724    -7.8239    -3.1894 H       
 191 H191           8.4381    -6.6976    -4.2477 H       
 192 H192           7.2473    -6.2149    -6.4617 H       
 193 H193           8.1100    -6.4322    -1.7401 H       
 194 H194           6.9040    -5.1249    -1.8099 H       
 195 H195           7.2337    -5.8957     0.7513 H       
 196 H196           6.0438    -6.9660     1.2623 H       
 197 H197           7.6717    -0.9091    -3.8826 H       
 198 H198           7.3531    -2.4520    -4.7109 H       
 199 H199           9.3826    -2.3666    -3.0994 H       
 200 H200           8.8022    -2.6429    -0.8083 H       
 201 H201           5.8148    -1.0992    -2.5196 H       
 202 H202           5.0817    -2.9578    -4.8272 H       
 203 H203           3.9274    -2.0958    -3.7819 H       
 204 H204           5.0055    -1.1798    -4.8621 H       
 205 H205           6.6207    -3.1957    -1.4516 H       
 206 H206           4.8700    -3.2562    -1.7669 H       
 207 H207           5.9968    -4.1300    -2.8322 H       
 208 H208          -4.9946    -4.0274    -5.9482 H       
 209 H209          -5.6552    -2.5619    -5.1837 H       
 210 H210          -5.3261    -2.5821    -6.9329 H       
 211 H211          -3.2299    -2.7812    -4.7216 H       
 212 H212          -3.7998    -0.4545    -6.5235 H       
 213 H213          -0.8015    -2.6346    -8.2520 H       
 214 H214           0.4309    -3.4496    -7.2594 H       
 215 H215          -1.8544    -4.9199    -8.6406 H       
 216 H216          -2.4090    -4.8026    -5.9365 H       
 217 H217          -1.1708    -3.5937   -10.6320 H       
 218 H218           0.0676    -4.1967   -12.6720 H       
 219 H219           3.5528    -4.9641   -10.3204 H       
 220 H220           2.3103    -4.3499    -8.2863 H       
 221 H221           3.0236    -4.2074   -13.1730 H       
 222 H222           0.8951    -5.8443    -8.7605 H       
@<TRIPOS>BOND
   1    1    2 1
   2    1    3 1
   3    1    4 1
   4    1   63 1
   5    2   13 2
   6    2   95 am
   7    3    5 1
   8    3  110 1
   9    3  111 1
  10    4  112 1
  11    4  113 1
  12    4  114 1
  13    5    6 1
  14    5  115 1
  15    5  116 1
  16    6    7 1
  17    6  117 1
  18    6  118 1
  19    7    8 1
  20    7  119 1
  21    7  120 1
  22    8    9 1
  23    8  121 1
  24    8  122 1
  25    9   10 1
  26    9  123 1
  27    9  124 1
  28   10   11 2
  29   10  125 1
  30   11   12 1
  31   11  126 1
  32   12   23 1
  33   12  127 1
  34   12  128 1
  35   14   15 1
  36   14   24 1
  37   14  109 1
  38   14  129 1
  39   15   16 2
  40   15   73 am
  41   17   18 1
  42   17   87 1
  43   17  130 1
  44   18   19 1
  45   18   21 1
  46   18   22 1
  47   19   20 2
  48   19   67 am
  49   21   23 1
  50   21  131 1
  51   21  132 1
  52   22  133 1
  53   22  134 1
  54   22  135 1
  55   23  136 1
  56   23  137 1
  57   24   25 1
  58   24  138 1
  59   24  139 1
  60   25   26 2
  61   25   29 1
  62   26   27 1
  63   26  140 1
  64   27   28 1
  65   27  141 1
  66   28   29 ar
  67   28   30 ar
  68   29   33 ar
  69   30   31 ar
  70   30  142 1
  71   31   32 ar
  72   31  143 1
  73   32   33 ar
  74   32  144 1
  75   33  145 1
  76   34   36 2
  77   34   40 am
  78   34   35 1
  79   35  146 1
  80   35  147 1
  81   35  148 1
  82   37   42 1
  83   37   38 1
  84   37  149 1
  85   37  150 1
  86   38   40 1
  87   38   39 1
  88   38  151 1
  89   39   41 2
  90   39   48 am
  91   40  152 1
  92   42   43 1
  93   42   44 1
  94   42  153 1
  95   43  154 1
  96   43  155 1
  97   43  156 1
  98   44  157 1
  99   44  158 1
 100   44  159 1
 101   45   46 1
 102   45   50 1
 103   45   51 1
 104   45  160 1
 105   46   48 1
 106   46   47 1
 107   46  161 1
 108   47   49 2
 109   47   55 am
 110   48  162 1
 111   50  163 1
 112   50  164 1
 113   50  165 1
 114   51  166 1
 115   52   57 1
 116   52   53 1
 117   52  167 1
 118   52  168 1
 119   53   54 1
 120   53   55 1
 121   53  169 1
 122   54   56 2
 123   54   63 am
 124   55  170 1
 125   57   58 ar
 126   57   62 ar
 127   58   59 ar
 128   58  171 1
 129   59   60 ar
 130   59  172 1
 131   60   61 ar
 132   60  173 1
 133   61   62 ar
 134   61  174 1
 135   62  175 1
 136   63  176 1
 137   64   65 1
 138   64  177 1
 139   64  178 1
 140   64  179 1
 141   65   66 1
 142   65   67 1
 143   65  180 1
 144   66   68 2
 145   66   69 am
 146   67  181 1
 147   69  182 1
 148   69  183 1
 149   70   71 1
 150   70  184 1
 151   70  185 1
 152   70  186 1
 153   71   72 1
 154   71   73 1
 155   71  187 1
 156   72   74 2
 157   72   78 am
 158   73  188 1
 159   75   80 1
 160   75   76 1
 161   75  189 1
 162   75  190 1
 163   76   78 1
 164   76   77 1
 165   76  191 1
 166   77   79 2
 167   77   86 1
 168   78  192 1
 169   80   81 1
 170   80  193 1
 171   80  194 1
 172   81   82 2
 173   81   83 am
 174   83  195 1
 175   83  196 1
 176   84   89 1
 177   84   85 1
 178   84  197 1
 179   84  198 1
 180   85   87 1
 181   85   86 1
 182   85  199 1
 183   86   88 2
 184   87  200 1
 185   89   90 1
 186   89   91 1
 187   89  201 1
 188   90  202 1
 189   90  203 1
 190   90  204 1
 191   91  205 1
 192   91  206 1
 193   91  207 1
 194   92   93 1
 195   92  208 1
 196   92  209 1
 197   92  210 1
 198   93   94 1
 199   93   95 1
 200   93  211 1
 201   94   96 2
 202   94  100 am
 203   95  212 1
 204   97  102 1
 205   97   98 1
 206   97  213 1
 207   97  214 1
 208   98   99 1
 209   98  100 1
 210   98  215 1
 211   99  101 2
 212   99  109 am
 213  100  216 1
 214  102  103 ar
 215  102  107 ar
 216  103  104 ar
 217  103  217 1
 218  104  105 ar
 219  104  218 1
 220  105  106 ar
 221  105  108 1
 222  106  107 ar
 223  106  219 1
 224  107  220 1
 225  108  221 1
 226  109  222 1

#	End of record

