#	Name: ASD01870532
#	Creating user name:	WinNT
#	Creation time:	15. 06. 2019 19:39

#	Modifying user name:	WinNT
#	Modification time:	15. 06. 2019 19:39

#	Program:	/corina/corina34_cracker 3.40 0067  02.08.2006

@<TRIPOS>MOLECULE
ASD01870532
  28   30    0    0    0
SMALL
NO_CHARGES


@<TRIPOS>ATOM
   1 C1            -0.0084     1.4066     0.0704 C.ar    
   2 C2            -0.0171     0.0081    -0.1542 C.ar    
   3 N3             1.1154    -0.5735    -0.5260 N.ar    
   4 C4             2.2298     0.1223    -0.6863 C.ar    
   5 N5             2.2966     1.4180    -0.4926 N.ar    
   6 C6             1.2089     2.1062    -0.1145 C.ar    
   7 C7             1.2445     3.4904     0.1017 C.ar    
   8 C8             0.1100     4.1412     0.4857 C.ar    
   9 C9            -1.0864     3.4515     0.6676 C.ar    
  10 C10           -1.1543     2.1029     0.4702 C.ar    
  11 N11           -1.1718    -0.7288     0.0097 N.pl3   
  12 C12           -1.1341    -2.1215    -0.1036 C.ar    
  13 C13           -2.1916    -4.1847    -0.7183 C.ar    
  14 C14           -1.0613    -4.8793    -0.3278 C.ar    
  15 C15            0.0316    -4.1988     0.1797 C.ar    
  16 C16           -0.0021    -2.8214     0.2928 C.ar    
  17 C17           -2.2312    -2.8089    -0.6078 C.ar    
  18 Cl18           1.4482    -5.0748     0.6691 Cl      
  19 Br19          -2.6353     4.3953     1.2023 Br      
  20 H20            3.1248    -0.4004    -0.9899 H       
  21 H21            2.1652     4.0382    -0.0348 H       
  22 H22            0.1394     5.2080     0.6518 H       
  23 H23           -2.0863     1.5776     0.6179 H       
  24 H24           -2.0099    -0.2805     0.2036 H       
  25 H25           -3.0427    -4.7187    -1.1144 H       
  26 H26           -1.0331    -5.9554    -0.4150 H       
  27 H27            0.8510    -2.2903     0.6886 H       
  28 H28           -3.1146    -2.2675    -0.9127 H       
@<TRIPOS>BOND
   1    1    2 ar
   2    1    6 ar
   3    1   10 ar
   4    2    3 ar
   5    2   11 1
   6    3    4 ar
   7    4    5 ar
   8    4   20 1
   9    5    6 ar
  10    6    7 ar
  11    7    8 ar
  12    7   21 1
  13    8    9 ar
  14    8   22 1
  15    9   10 ar
  16    9   19 1
  17   10   23 1
  18   11   12 1
  19   11   24 1
  20   12   17 ar
  21   12   16 ar
  22   13   14 ar
  23   13   17 ar
  24   13   25 1
  25   14   15 ar
  26   14   26 1
  27   15   16 ar
  28   15   18 1
  29   16   27 1
  30   17   28 1

#	End of record

