#	Name: ASD05313179
#	Creating user name:	WinNT
#	Creation time:	15. 06. 2019 20:58

#	Modifying user name:	WinNT
#	Modification time:	15. 06. 2019 20:58

#	Program:	/corina/corina34_cracker 3.40 0067  02.08.2006

@<TRIPOS>MOLECULE
ASD05313179
  39   42    0    0    0
SMALL
NO_CHARGES


@<TRIPOS>ATOM
   1 C1            -0.6941     1.7151    -1.6533 C.ar    
   2 C2            -0.8554     0.3993    -2.1033 C.ar    
   3 C3             0.2728    -0.3885    -2.2957 C.ar    
   4 C4             1.5172     0.1637    -2.0329 C.ar    
   5 C5             1.6014     1.4719    -1.5903 C.ar    
   6 N6             0.5185     2.2004    -1.4149 N.ar    
   7 O7            -2.0949    -0.0994    -2.3474 O.3     
   8 C8            -3.1888     4.2439    -0.9872 C.2     
   9 C9            -3.6500     5.6206    -0.5720 C.3     
  10 N10           -1.8863     3.8635    -1.0175 N.pl3   
  11 N11           -2.4832     6.3064     0.0150 N.am    
  12 C12           -1.1871     6.1764    -0.6679 C.3     
  13 C13           -0.7508     4.7065    -0.6474 C.3     
  14 N14           -3.1391     2.2336    -1.6498 N.2     
  15 N15           -3.9058     3.2322    -1.3741 N.2     
  16 C16           -1.8813     2.5716    -1.4482 C.2     
  17 C17           -2.6017     7.0319     1.1446 C.2     
  18 O18           -1.6130     7.5077     1.6680 O.2     
  19 C19           -3.9330     7.2488     1.7469 C.ar    
  20 C20           -4.1092     7.1141     3.1266 C.ar    
  21 C21           -5.3580     7.3191     3.6832 C.ar    
  22 C22           -6.4323     7.6570     2.8742 C.ar    
  23 C23           -6.2611     7.7908     1.5065 C.ar    
  24 C24           -5.0191     7.5949     0.9405 C.ar    
  25 F25           -5.5320     7.1897     5.0167 F       
  26 Cl26          -7.9982     7.9127     3.5787 Cl      
  27 Cl27          -2.7640     6.6899     4.1386 Cl      
  28 H28            0.1825    -1.4076    -2.6416 H       
  29 H29            2.4134    -0.4226    -2.1722 H       
  30 H30            2.5705     1.9022    -1.3852 H       
  31 H31           -2.4016     0.0358    -3.2544 H       
  32 H32           -4.0065     6.1717    -1.4422 H       
  33 H33           -4.4451     5.5388     0.1692 H       
  34 H34           -1.2839     6.5132    -1.7000 H       
  35 H35           -0.4424     6.7844    -0.1541 H       
  36 H36           -0.4111     4.4410     0.3537 H       
  37 H37            0.0607     4.5577    -1.3597 H       
  38 H38           -7.1021     8.0535     0.8818 H       
  39 H39           -4.8875     7.7044    -0.1258 H       
@<TRIPOS>BOND
   1    1    2 ar
   2    1    6 ar
   3    1   16 1
   4    2    3 ar
   5    2    7 1
   6    3    4 ar
   7    3   28 1
   8    4    5 ar
   9    4   29 1
  10    5    6 ar
  11    5   30 1
  12    7   31 1
  13    8    9 1
  14    8   10 1
  15    8   15 2
  16    9   11 1
  17    9   32 1
  18    9   33 1
  19   10   13 1
  20   10   16 1
  21   11   12 1
  22   11   17 am
  23   12   13 1
  24   12   34 1
  25   12   35 1
  26   13   36 1
  27   13   37 1
  28   14   15 1
  29   14   16 2
  30   17   18 2
  31   17   19 1
  32   19   20 ar
  33   19   24 ar
  34   20   21 ar
  35   20   27 1
  36   21   22 ar
  37   21   25 1
  38   22   23 ar
  39   22   26 1
  40   23   24 ar
  41   23   38 1
  42   24   39 1

#	End of record

