#	Name: ASD01881700
#	Creating user name:	WinNT
#	Creation time:	15. 06. 2019 19:43

#	Modifying user name:	WinNT
#	Modification time:	15. 06. 2019 19:43

#	Program:	/corina/corina34_cracker 3.40 0067  02.08.2006

@<TRIPOS>MOLECULE
ASD01881700
  47   50    0    0    0
SMALL
NO_CHARGES


@<TRIPOS>ATOM
   1 C1            -0.0187     1.5258     0.0104 C.3     
   2 C2             0.0021    -0.0041     0.0020 C.3     
   3 C3            -1.4266    -0.5342     0.1385 C.3     
   4 O4             0.5662    -0.4660    -1.2270 O.3     
   5 N5            -1.3968    -1.9987     0.2508 N.3     
   6 C6            -2.7226    -2.5273     0.6206 C.3     
   7 C7            -3.1311    -3.5405    -0.4693 C.3     
   8 C8            -1.7709    -3.9507    -1.0926 C.3     
   9 C9            -0.9817    -2.6195    -1.0251 C.3     
  10 O10            1.3220     2.0204     0.0003 O.3     
  11 N11            2.2400     7.4205     0.0200 N.pl3   
  12 N12            3.6403     7.3392     0.0069 N.2     
  13 N13            3.9973     6.1034    -0.0026 N.2     
  14 C14            2.9132     5.3024     0.0031 C.ar    
  15 C15            1.7738     6.1256     0.0177 C.ar    
  16 C16            2.7516     3.9101    -0.0032 C.ar    
  17 C17            1.4818     3.3708     0.0060 C.ar    
  18 C18            0.3624     4.1994     0.0207 C.ar    
  19 C19            0.5044     5.5585     0.0256 C.ar    
  20 C20            1.4328     8.6429     0.0390 C.3     
  21 C21            1.1385     9.0821    -1.3968 C.3     
  22 C22            0.2058    10.2790    -1.5923 C.3     
  23 C23            1.7059    10.4273    -1.8544 C.3     
  24 Br24           4.2656     2.7773    -0.0234 Br      
  25 H25           -0.5459     1.8868    -0.8726 H       
  26 H26           -0.5289     1.8773     0.9072 H       
  27 H27            0.6044    -0.3639     0.8362 H       
  28 H28           -1.8876    -0.1107     1.0309 H       
  29 H29           -2.0055    -0.2489    -0.7398 H       
  30 H30            0.0804    -0.1829    -2.0137 H       
  31 H31           -2.6662    -3.0261     1.5882 H       
  32 H32           -3.4477    -1.7144     0.6618 H       
  33 H33           -3.6280    -4.4036    -0.0264 H       
  34 H34           -3.7698    -3.0675    -1.2153 H       
  35 H35           -1.2853    -4.7232    -0.4963 H       
  36 H36           -1.8972    -4.2779    -2.1246 H       
  37 H37           -1.2486    -1.9771    -1.8643 H       
  38 H38            0.0908    -2.8140    -1.0212 H       
  39 H39           -0.6260     3.7642     0.0274 H       
  40 H40           -0.3698     6.1924     0.0368 H       
  41 H41            0.4947     8.4508     0.5596 H       
  42 H42            1.9800     9.4316     0.5553 H       
  43 H43            1.0889     8.2798    -2.1330 H       
  44 H44           -0.4572    10.2644    -2.4574 H       
  45 H45           -0.1982    10.7536    -0.6981 H       
  46 H46            2.2888    10.9994    -1.1326 H       
  47 H47            2.0298    10.5102    -2.8919 H       
@<TRIPOS>BOND
   1    1    2 1
   2    1   10 1
   3    1   25 1
   4    1   26 1
   5    2    3 1
   6    2    4 1
   7    2   27 1
   8    3    5 1
   9    3   28 1
  10    3   29 1
  11    4   30 1
  12    5    6 1
  13    5    9 1
  14    6    7 1
  15    6   31 1
  16    6   32 1
  17    7    8 1
  18    7   33 1
  19    7   34 1
  20    8    9 1
  21    8   35 1
  22    8   36 1
  23    9   37 1
  24    9   38 1
  25   10   17 1
  26   11   12 1
  27   11   15 1
  28   11   20 1
  29   12   13 2
  30   13   14 1
  31   14   15 ar
  32   14   16 ar
  33   15   19 ar
  34   16   17 ar
  35   16   24 1
  36   17   18 ar
  37   18   19 ar
  38   18   39 1
  39   19   40 1
  40   20   21 1
  41   20   41 1
  42   20   42 1
  43   21   22 1
  44   21   23 1
  45   21   43 1
  46   22   23 1
  47   22   44 1
  48   22   45 1
  49   23   46 1
  50   23   47 1

#	End of record

