#	Name: ASD07301750
#	Creating user name:	WinNT
#	Creation time:	15. 06. 2019 21:11

#	Modifying user name:	WinNT
#	Modification time:	15. 06. 2019 21:11

#	Program:	/corina/corina34_cracker 3.40 0067  02.08.2006

@<TRIPOS>MOLECULE
ASD07301750
  14   15    0    0    0
SMALL
NO_CHARGES


@<TRIPOS>ATOM
   1 C1            -0.0170     1.4023     0.0098 C.ar    
   2 C2             0.0021    -0.0041     0.0020 C.ar    
   3 C3             1.2338    -0.6646    -0.0140 C.ar    
   4 C4             2.3846     0.1011    -0.0215 C.ar    
   5 C5             2.2861     1.4831    -0.0131 C.ar    
   6 N6             1.1153     2.0867     0.0026 N.ar    
   7 C7            -2.0806     0.6122     0.0339 C.2     
   8 N8            -1.3486     1.7608     0.0299 N.pl3   
   9 N9            -1.2890    -0.4221     0.0129 N.2     
  10 Cl10          -3.8148     0.5376     0.0573 Cl      
  11 H11            1.2849    -1.7434    -0.0200 H       
  12 H12            3.3541    -0.3747    -0.0336 H       
  13 H13            3.1876     2.0777    -0.0191 H       
  14 H14           -1.6994     2.6650     0.0401 H       
@<TRIPOS>BOND
   1    1    2 ar
   2    1    6 ar
   3    1    8 1
   4    2    3 ar
   5    2    9 1
   6    3    4 ar
   7    3   11 1
   8    4    5 ar
   9    4   12 1
  10    5    6 ar
  11    5   13 1
  12    7    8 1
  13    7    9 2
  14    7   10 1
  15    8   14 1

#	End of record

