#	Name: ASD05872020
#	Creating user name:	WinNT
#	Creation time:	15. 06. 2019 21:04

#	Modifying user name:	WinNT
#	Modification time:	15. 06. 2019 21:04

#	Program:	/corina/corina34_cracker 3.40 0067  02.08.2006

@<TRIPOS>MOLECULE
ASD05872020
  43   45    0    0    0
SMALL
NO_CHARGES


@<TRIPOS>ATOM
   1 C1            -0.0168     1.3910     0.0097 C.ar    
   2 C2             0.0021    -0.0041     0.0020 C.ar    
   3 C3            -1.1844    -0.7121     0.0095 C.ar    
   4 C4            -2.3952    -0.0265     0.0248 C.ar    
   5 C5            -2.4170     1.3755     0.0325 C.ar    
   6 C6            -1.2170     2.0761     0.0306 C.ar    
   7 C7            -3.8126    -0.4422     0.0361 C.2     
   8 C8            -4.5350     0.7104     0.0492 C.2     
   9 O9            -3.7097     1.7640     0.0470 O.3     
  10 C10           -6.0398     0.7892     0.0640 C.3     
  11 C11           -4.3346    -1.8171     0.0337 C.2     
  12 O12           -4.5405    -2.3914     1.0862 O.2     
  13 C13           -6.0733    -3.2719    -3.3916 C.3     
  14 C14           -6.3783    -3.8472    -2.0066 C.3     
  15 C15           -5.1066    -3.8143    -1.1531 C.3     
  16 N16           -4.5850    -2.4409    -1.1345 N.am    
  17 C17           -4.3419    -1.7602    -2.4137 C.3     
  18 C18           -5.6221    -1.8161    -3.2531 C.3     
  19 O19            1.1896    -0.6677    -0.0133 O.3     
  20 S20            1.7438    -0.9771     1.3700 S.o2    
  21 O21            3.1398    -1.3443     1.1901 O.co2   
  22 O22            1.5955     0.2342     2.1618 O.co2   
  23 O23            0.9541    -2.0770     1.9018 O.co2   
  24 O24            1.1546     2.0819     0.0022 O.3     
  25 C25            1.0667     3.5081     0.0107 C.3     
  26 H26           -1.1721    -1.7920     0.0033 H       
  27 H27           -1.2222     3.1561     0.0365 H       
  28 H28           -6.3928     0.8027     1.0951 H       
  29 H29           -6.3610     1.6997    -0.4419 H       
  30 H30           -6.4541    -0.0778    -0.4506 H       
  31 H31           -5.2805    -3.8548    -3.8604 H       
  32 H32           -6.9704    -3.3169    -4.0091 H       
  33 H33           -7.1538    -3.2498    -1.5272 H       
  34 H34           -6.7219    -4.8767    -2.1079 H       
  35 H35           -5.3406    -4.1300    -0.1364 H       
  36 H36           -4.3606    -4.4827    -1.5830 H       
  37 H37           -4.0713    -0.7206    -2.2288 H       
  38 H38           -3.5335    -2.2611    -2.9464 H       
  39 H39           -5.4276    -1.3999    -4.2416 H       
  40 H40           -6.4048    -1.2378    -2.7620 H       
  41 H41            2.0700     3.9341     0.0034 H       
  42 H42            0.5230     3.8439    -0.8723 H       
  43 H43            0.5400     3.8344     0.9075 H       
@<TRIPOS>BOND
   1    1    2 ar
   2    1   24 1
   3    1    6 ar
   4    2    3 ar
   5    2   19 1
   6    3    4 ar
   7    3   26 1
   8    4    5 ar
   9    4    7 1
  10    5    6 ar
  11    5    9 1
  12    6   27 1
  13    7    8 2
  14    7   11 1
  15    8    9 1
  16    8   10 1
  17   10   28 1
  18   10   29 1
  19   10   30 1
  20   11   12 2
  21   11   16 am
  22   13   14 1
  23   13   18 1
  24   13   31 1
  25   13   32 1
  26   14   15 1
  27   14   33 1
  28   14   34 1
  29   15   16 1
  30   15   35 1
  31   15   36 1
  32   16   17 1
  33   17   18 1
  34   17   37 1
  35   17   38 1
  36   18   39 1
  37   18   40 1
  38   19   20 1
  39   20   21 ar
  40   20   22 ar
  41   20   23 ar
  42   24   25 1
  43   25   41 1
  44   25   42 1
  45   25   43 1

#	End of record

