#	Name: ASD05720119
#	Creating user name:	WinNT
#	Creation time:	15. 06. 2019 21:01

#	Modifying user name:	WinNT
#	Modification time:	15. 06. 2019 21:01

#	Program:	/corina/corina34_cracker 3.40 0067  02.08.2006

@<TRIPOS>MOLECULE
ASD05720119
  40   41    0    0    0
SMALL
NO_CHARGES


@<TRIPOS>ATOM
   1 N1             0.0185     1.4049    -0.2435 N.pl3   
   2 N2             0.0063     0.0042    -0.1432 N.2     
   3 C3             1.2256    -0.3691     0.1464 C.2     
   4 N4             2.0036     0.7065     0.2346 N.2     
   5 C5             1.2918     1.7911     0.0019 C.2     
   6 C6            -1.1186     2.2736    -0.5574 C.3     
   7 O7            -1.8610     2.5359     0.6352 O.3     
   8 C8            -2.9979     3.3790     0.4384 C.3     
   9 C9            -3.7131     3.5908     1.7743 C.3     
  10 Si10          -5.1953     4.6899     1.5178 Si      
  11 C11           -6.3628     3.8858     0.3091 C.3     
  12 C12           -6.0661     4.9478     3.1445 C.3     
  13 C13           -4.6392     6.3351     0.8434 C.3     
  14 C14            1.7949     3.1814     0.0075 C.ar    
  15 C15            1.1907     4.1433     0.8213 C.ar    
  16 C16            1.6663     5.4409     0.8213 C.ar    
  17 C17            2.7383     5.7886     0.0179 C.ar    
  18 C18            3.3414     4.8412    -0.7910 C.ar    
  19 C19            2.8805     3.5383    -0.7967 C.ar    
  20 F20            3.4742     2.6134    -1.5824 F       
  21 F21            0.1438     3.8058     1.6057 F       
  22 Br22           3.3818     7.5667     0.0250 Br      
  23 H23            1.5497    -1.3891     0.2913 H       
  24 H24           -0.7542     3.2133    -0.9726 H       
  25 H25           -1.7627     1.7803    -1.2852 H       
  26 H26           -2.6726     4.3415     0.0439 H       
  27 H27           -3.6810     2.9085    -0.2688 H       
  28 H28           -4.0384     2.6282     2.1689 H       
  29 H29           -3.0299     4.0612     2.4815 H       
  30 H30           -6.6882     2.9233     0.7036 H       
  31 H31           -7.2301     4.5289     0.1590 H       
  32 H32           -5.8534     3.7349    -0.6427 H       
  33 H33           -5.3829     5.4182     3.8517 H       
  34 H34           -6.9333     5.5908     2.9944 H       
  35 H35           -6.3914     3.9852     3.5390 H       
  36 H36           -4.1297     6.1842    -0.1083 H       
  37 H37           -5.5064     6.9781     0.6934 H       
  38 H38           -3.9560     6.8055     1.5507 H       
  39 H39            1.2001     6.1855     1.4495 H       
  40 H40            4.1771     5.1197    -1.4158 H       
@<TRIPOS>BOND
   1    1    2 1
   2    1    5 1
   3    1    6 1
   4    2    3 2
   5    3    4 1
   6    3   23 1
   7    4    5 2
   8    5   14 1
   9    6    7 1
  10    6   24 1
  11    6   25 1
  12    7    8 1
  13    8    9 1
  14    8   26 1
  15    8   27 1
  16    9   10 1
  17    9   28 1
  18    9   29 1
  19   10   11 1
  20   10   12 1
  21   10   13 1
  22   11   30 1
  23   11   31 1
  24   11   32 1
  25   12   33 1
  26   12   34 1
  27   12   35 1
  28   13   36 1
  29   13   37 1
  30   13   38 1
  31   14   15 ar
  32   14   19 ar
  33   15   16 ar
  34   15   21 1
  35   16   17 ar
  36   16   39 1
  37   17   18 ar
  38   17   22 1
  39   18   19 ar
  40   18   40 1
  41   19   20 1

#	End of record

