#	Name: ASD01880674
#	Creating user name:	WinNT
#	Creation time:	15. 06. 2019 19:41

#	Modifying user name:	WinNT
#	Modification time:	15. 06. 2019 19:41

#	Program:	/corina/corina34_cracker 3.40 0067  02.08.2006

@<TRIPOS>MOLECULE
ASD01880674
  38   40    0    0    0
SMALL
NO_CHARGES


@<TRIPOS>ATOM
   1 N1            -0.0158     1.3147     0.0093 N.ar    
   2 C2             0.0021    -0.0041     0.0020 C.ar    
   3 N3             1.1332    -0.6823    -0.0120 N.ar    
   4 C4             2.2988    -0.0561    -0.0197 C.ar    
   5 C5             2.3200     1.3297    -0.0130 C.ar    
   6 C6             1.1114     2.0078     0.0022 C.ar    
   7 C7             3.6262     2.0813    -0.0209 C.3     
   8 O8             4.0270     2.3256    -1.3706 O.3     
   9 C9             5.1915     2.9975    -1.5555 C.ar    
  10 C10            5.6403     3.2689    -2.8444 C.ar    
  11 C11            6.8182     3.9490    -3.0300 C.ar    
  12 C12            7.5722     4.3720    -1.9303 C.ar    
  13 C13            7.1166     4.0972    -0.6379 C.ar    
  14 C14            5.9318     3.4189    -0.4574 C.ar    
  15 C15            7.5708     4.3947    -4.2589 C.3     
  16 N16            8.7736     5.0824    -3.7758 N.am    
  17 C17            8.7704     5.0670    -2.4319 C.2     
  18 O18            9.6335     5.5574    -1.7298 O.2     
  19 Br19          -1.6369    -0.9472     0.0126 Br      
  20 C20            7.9186     4.5464     0.5563 C.3     
  21 C21            9.4485     7.1462    -4.9012 C.3     
  22 C22            9.8081     5.6860    -4.6195 C.3     
  23 H23            3.2215    -0.6174    -0.0309 H       
  24 H24            1.0898     3.0876     0.0075 H       
  25 H25            3.5019     3.0313     0.4989 H       
  26 H26            4.3895     1.4885     0.4831 H       
  27 H27            5.0630     2.9446    -3.6975 H       
  28 H28            5.5801     3.2071     0.5416 H       
  29 H29            7.8500     3.5302    -4.8614 H       
  30 H30            6.9582     5.0790    -4.8458 H       
  31 H31            7.5998     5.5455     0.8531 H       
  32 H32            7.7589     3.8536     1.3826 H       
  33 H33            8.9771     4.5648     0.2970 H       
  34 H34           10.2182     7.5953    -5.5289 H       
  35 H35            8.4884     7.1914    -5.4152 H       
  36 H36            9.3829     7.6923    -3.9601 H       
  37 H37           10.7682     5.6408    -4.1055 H       
  38 H38            9.8737     5.1399    -5.5606 H       
@<TRIPOS>BOND
   1    1    2 ar
   2    1    6 ar
   3    2    3 ar
   4    2   19 1
   5    3    4 ar
   6    4    5 ar
   7    4   23 1
   8    5    6 ar
   9    5    7 1
  10    6   24 1
  11    7    8 1
  12    7   25 1
  13    7   26 1
  14    8    9 1
  15    9   10 ar
  16    9   14 ar
  17   10   11 ar
  18   10   27 1
  19   11   12 ar
  20   11   15 1
  21   12   13 ar
  22   12   17 1
  23   13   14 ar
  24   13   20 1
  25   14   28 1
  26   15   16 1
  27   15   29 1
  28   15   30 1
  29   16   17 am
  30   16   22 1
  31   17   18 2
  32   20   31 1
  33   20   32 1
  34   20   33 1
  35   21   22 1
  36   21   34 1
  37   21   35 1
  38   21   36 1
  39   22   37 1
  40   22   38 1

#	End of record

