#	Name: ASD01916885
#	Creating user name:	WinNT
#	Creation time:	15. 06. 2019 20:08

#	Modifying user name:	WinNT
#	Modification time:	15. 06. 2019 20:08

#	Program:	/corina/corina34_cracker 3.40 0067  02.08.2006

@<TRIPOS>MOLECULE
ASD01916885
  65   69    0    0    0
SMALL
NO_CHARGES


@<TRIPOS>ATOM
   1 C1            -0.0167     1.3837     0.0096 C.ar    
   2 C2             0.0021    -0.0041     0.0020 C.ar    
   3 C3            -1.1833    -0.7154     0.0091 C.ar    
   4 C4            -2.3922    -0.0493     0.0237 C.ar    
   5 C5            -2.4197     1.3441     0.0319 C.ar    
   6 C6            -1.2257     2.0601     0.0306 C.ar    
   7 C7            -3.7183     2.0627     0.0472 C.2     
   8 N8            -4.9286     1.4881     0.0543 N.2     
   9 N9            -3.8714     3.3686     0.0617 N.2     
  10 N10           -5.2543     3.6129     0.0726 N.pl3   
  11 C11           -5.8553     2.4094     0.0676 C.2     
  12 C12           -7.3424     2.1654     0.0751 C.3     
  13 C13           -5.9130     4.9213     0.0901 C.3     
  14 C14           -6.1479     5.3845    -1.3245 C.2     
  15 O15           -5.7994     4.6900    -2.2558 O.2     
  16 N16           -6.7452     6.5705    -1.5549 N.am    
  17 C17           -6.9841     7.0415    -2.9276 C.3     
  18 C18           -8.4562     7.4478    -3.0537 C.3     
  19 N19           -8.7859     8.4155    -1.9988 N.3     
  20 C20           -8.6402     7.8192    -0.6642 C.3     
  21 C21           -7.1811     7.4254    -0.4402 C.3     
  22 C22          -10.0590     8.9285    -2.1766 C.ar    
  23 N23          -10.5235     9.8197    -1.3131 N.ar    
  24 N24          -10.7822     8.5208    -3.2092 N.ar    
  25 C25          -11.7357    10.3299    -1.4544 C.ar    
  26 C26          -12.5212     9.9214    -2.5209 C.ar    
  27 C27          -12.0022     8.9916    -3.4081 C.ar    
  28 C28           -7.7367     1.3802    -1.1774 C.3     
  29 C29           -9.2465     1.1324    -1.1698 C.3     
  30 C30           -9.6252     0.3291     0.0760 C.3     
  31 C31           -9.2309     1.1143     1.3285 C.3     
  32 C32           -7.7211     1.3620     1.3209 C.3     
  33 O33            1.1509     2.0791     0.0022 O.3     
  34 C34            2.3597     1.3171    -0.0134 C.3     
  35 H35            0.9454    -0.5297    -0.0098 H       
  36 H36           -1.1635    -1.7952     0.0027 H       
  37 H37           -3.3166    -0.6078     0.0285 H       
  38 H38           -1.2418     3.1400     0.0369 H       
  39 H39           -7.8673     3.1206     0.0853 H       
  40 H40           -6.8680     4.8404     0.6093 H       
  41 H41           -5.2781     5.6408     0.6073 H       
  42 H42           -6.3477     7.9017    -3.1355 H       
  43 H43           -6.7636     6.2404    -3.6331 H       
  44 H44           -8.6259     7.9020    -4.0299 H       
  45 H45           -9.0874     6.5654    -2.9480 H       
  46 H46           -8.9433     8.5428     0.0925 H       
  47 H47           -9.2688     6.9317    -0.5918 H       
  48 H48           -7.0890     6.8801     0.4991 H       
  49 H49           -6.5607     8.3210    -0.4092 H       
  50 H50          -12.1090    11.0557    -0.7472 H       
  51 H51          -13.5145    10.3220    -2.6598 H       
  52 H52          -12.5883     8.6527    -4.2496 H       
  53 H53           -7.4669     1.9525    -2.0650 H       
  54 H54           -7.2118     0.4249    -1.1877 H       
  55 H55           -9.7714     2.0877    -1.1596 H       
  56 H56           -9.5274     0.5730    -2.0622 H       
  57 H57          -10.7008     0.1526     0.0814 H       
  58 H58           -9.1003    -0.6262     0.0658 H       
  59 H59           -9.7558     2.0695     1.3387 H       
  60 H60           -9.5007     0.5420     2.2161 H       
  61 H61           -7.1962     0.4068     1.3107 H       
  62 H62           -7.4402     1.9214     2.2132 H       
  63 H63            2.3845     0.6935    -0.9070 H       
  64 H64            3.2150     1.9927    -0.0179 H       
  65 H65            2.4015     0.6839     0.8728 H       
@<TRIPOS>BOND
   1    1    2 ar
   2    1   33 1
   3    1    6 ar
   4    2    3 ar
   5    2   35 1
   6    3    4 ar
   7    3   36 1
   8    4    5 ar
   9    4   37 1
  10    5    6 ar
  11    5    7 1
  12    6   38 1
  13    7    8 1
  14    7    9 2
  15    8   11 2
  16    9   10 1
  17   10   11 1
  18   10   13 1
  19   11   12 1
  20   12   28 1
  21   12   32 1
  22   12   39 1
  23   13   14 1
  24   13   40 1
  25   13   41 1
  26   14   15 2
  27   14   16 am
  28   16   17 1
  29   16   21 1
  30   17   18 1
  31   17   42 1
  32   17   43 1
  33   18   19 1
  34   18   44 1
  35   18   45 1
  36   19   20 1
  37   19   22 1
  38   20   21 1
  39   20   46 1
  40   20   47 1
  41   21   48 1
  42   21   49 1
  43   22   23 ar
  44   22   24 ar
  45   23   25 ar
  46   24   27 ar
  47   25   26 ar
  48   25   50 1
  49   26   27 ar
  50   26   51 1
  51   27   52 1
  52   28   29 1
  53   28   53 1
  54   28   54 1
  55   29   30 1
  56   29   55 1
  57   29   56 1
  58   30   31 1
  59   30   57 1
  60   30   58 1
  61   31   32 1
  62   31   59 1
  63   31   60 1
  64   32   61 1
  65   32   62 1
  66   33   34 1
  67   34   63 1
  68   34   64 1
  69   34   65 1

#	End of record

