#	Name: ASD01148522
#	Creating user name:	WinNT
#	Creation time:	15. 06. 2019 19:02

#	Modifying user name:	WinNT
#	Modification time:	15. 06. 2019 19:02

#	Program:	/corina/corina34_cracker 3.40 0067  02.08.2006

@<TRIPOS>MOLECULE
ASD01148522
  50   53    0    0    0
SMALL
NO_CHARGES


@<TRIPOS>ATOM
   1 C1            -0.0180     1.4358     0.0451 C.ar    
   2 C2            -0.0166     0.0528     0.0405 C.ar    
   3 C3             1.1837    -0.6376     0.0176 C.ar    
   4 C4             2.3796     0.0568    -0.0007 C.ar    
   5 C5             2.3764     1.4392     0.0038 C.ar    
   6 C6             1.1784     2.1283     0.0267 C.ar    
   7 C7             3.6798     2.1954    -0.0162 C.3     
   8 O8             4.6902     1.4631    -0.7387 O.3     
   9 C9             3.5588     3.4850    -0.8627 C.3     
  10 C10            4.0453     3.0315    -2.2260 C.2     
  11 N11            4.6592     1.9034    -2.0819 N.2     
  12 C12            3.8510     3.7525    -3.4956 C.ar    
  13 C13            4.3741     3.1997    -4.7425 C.ar    
  14 C14            3.1647     4.9589    -3.5158 C.ar    
  15 C15            2.9672     5.6570    -4.6938 C.ar    
  16 C16            3.4466     5.1809    -5.9066 C.ar    
  17 C17            4.1723     3.9136    -5.9474 C.ar    
  18 C18            3.2205     5.9463    -7.1454 C.2     
  19 O19            3.7316     5.5822    -8.1869 O.2     
  20 N20            2.4471     7.0499    -7.1240 N.am    
  21 C21            4.6732     3.3950    -7.1480 C.ar    
  22 C22            5.0676     1.9830    -4.7701 C.ar    
  23 C23            4.1463     2.5145     1.4056 C.3     
  24 F24            4.3127     1.3233     2.1201 F       
  25 F25            5.3641     3.2012     1.3537 F       
  26 F26            3.1887     3.3107     2.0429 F       
  27 Cl27           1.1871    -2.3736     0.0125 Cl      
  28 Cl28          -1.5187    -0.8173     0.0642 Cl      
  29 C29            2.2352     7.7674    -8.2852 C.2     
  30 N30            2.7779     7.3808    -9.3910 N.2     
  31 O31            2.5606     8.1162   -10.5814 O.3     
  32 C32            3.2207     7.5752   -11.7275 C.3     
  33 C33            5.5385     1.5032    -5.9561 C.ar    
  34 C34            5.3445     2.2083    -7.1408 C.ar    
  35 H35           -0.9538     1.9748     0.0585 H       
  36 H36            3.3160    -0.4810    -0.0183 H       
  37 H37            1.1769     3.2083     0.0302 H       
  38 H38            2.5225     3.8190    -0.9130 H       
  39 H39            4.2008     4.2708    -0.4645 H       
  40 H40            2.7761     5.3611    -2.5919 H       
  41 H41            2.4281     6.5925    -4.6694 H       
  42 H42            2.0393     7.3404    -6.2932 H       
  43 H43            4.5283     3.9316    -8.0740 H       
  44 H44            5.2286     1.4286    -3.8573 H       
  45 H45            1.6154     8.6517    -8.2681 H       
  46 H46            3.0046     8.1952   -12.5976 H       
  47 H47            4.2964     7.5572   -11.5524 H       
  48 H48            2.8647     6.5607   -11.9068 H       
  49 H49            6.0734     0.5652    -5.9762 H       
  50 H50            5.7304     1.8093    -8.0672 H       
@<TRIPOS>BOND
   1    1    2 ar
   2    1    6 ar
   3    1   35 1
   4    2    3 ar
   5    2   28 1
   6    3    4 ar
   7    3   27 1
   8    4    5 ar
   9    4   36 1
  10    5    6 ar
  11    5    7 1
  12    6   37 1
  13    7    8 1
  14    7    9 1
  15    7   23 1
  16    8   11 1
  17    9   10 1
  18    9   38 1
  19    9   39 1
  20   10   11 2
  21   10   12 1
  22   12   13 ar
  23   12   14 ar
  24   13   22 ar
  25   13   17 ar
  26   14   15 ar
  27   14   40 1
  28   15   16 ar
  29   15   41 1
  30   16   17 ar
  31   16   18 1
  32   17   21 ar
  33   18   19 2
  34   18   20 am
  35   20   29 1
  36   20   42 1
  37   21   34 ar
  38   21   43 1
  39   22   33 ar
  40   22   44 1
  41   23   24 1
  42   23   25 1
  43   23   26 1
  44   29   30 2
  45   29   45 1
  46   30   31 1
  47   31   32 1
  48   32   46 1
  49   32   47 1
  50   32   48 1
  51   33   34 ar
  52   33   49 1
  53   34   50 1

#	End of record

