#	Name: ASD09530030
#	Creating user name:	WinNT
#	Creation time:	15. 06. 2019 21:22

#	Modifying user name:	WinNT
#	Modification time:	15. 06. 2019 21:22

#	Program:	/corina/corina34_cracker 3.40 0067  02.08.2006

@<TRIPOS>MOLECULE
ASD09530030
  54   57    0    0    0
SMALL
NO_CHARGES


@<TRIPOS>ATOM
   1 C1            -0.0168     1.3903     0.0097 C.ar    
   2 C2             0.0021    -0.0041     0.0020 C.ar    
   3 C3             1.2221    -0.6792    -0.0133 C.ar    
   4 C4             2.4027     0.0351    -0.0207 C.ar    
   5 C5             2.3776     1.4183    -0.0130 C.ar    
   6 C6             1.1703     2.0936     0.0021 C.ar    
   7 C7             3.6705     2.1924    -0.0212 C.3     
   8 C8             4.0879     2.4581    -1.4447 C.2     
   9 N9             5.2224     3.1401    -1.6981 N.am    
  10 O10            3.4029     2.0582    -2.3622 O.2     
  11 C11            5.6282     3.3984    -3.0819 C.3     
  12 C12            6.5046     4.6235    -3.1281 C.ar    
  13 N13            7.1831     4.9786    -2.0548 N.ar    
  14 C14            7.9627     6.0418    -2.0464 C.ar    
  15 C15            8.0960     6.8307    -3.1795 C.ar    
  16 C16            7.3940     6.4850    -4.3300 C.ar    
  17 C17            6.5906     5.3568    -4.2970 C.ar    
  18 O18            8.9005     7.9261    -3.1659 O.3     
  19 C19            9.5859     8.2125    -1.9452 C.3     
  20 C20           10.4363     9.4722    -2.1212 C.3     
  21 C21            6.4055     2.1948    -3.6186 C.3     
  22 C22           -1.2691    -0.7652     0.0106 C.ar    
  23 F23            9.6094    10.5500    -2.4557 F       
  24 F24           11.1074     9.7526    -0.9262 F       
  25 F25           11.3696     9.2658    -3.1428 F       
  26 C26           -1.4860    -1.7972    -0.9262 C.ar    
  27 C27           -2.6990    -2.5092    -0.9033 C.ar    
  28 C28           -3.6707    -2.1894     0.0415 C.ar    
  29 C29           -3.4453    -1.1795     0.9505 C.ar    
  30 C30           -2.2527    -0.4724     0.9431 C.ar    
  31 C31           -0.7102    -2.3379    -1.9766 C.2     
  32 N32           -1.3867    -3.2941    -2.5452 N.2     
  33 N33           -2.6275    -3.4362    -1.9121 N.pl3   
  34 H34           -0.9588     1.9186     0.0170 H       
  35 H35            1.2430    -1.7590    -0.0189 H       
  36 H36            3.3482    -0.4866    -0.0322 H       
  37 H37            1.1569     3.1735     0.0084 H       
  38 H38            3.5300     3.1399     0.4991 H       
  39 H39            4.4443     1.6128     0.4821 H       
  40 H40            5.7702     3.4600    -0.9643 H       
  41 H41            4.7424     3.5620    -3.6958 H       
  42 H42            8.5028     6.3013    -1.1479 H       
  43 H43            7.4768     7.0791    -5.2281 H       
  44 H44            6.0314     5.0585    -5.1715 H       
  45 H45            8.8588     8.3733    -1.1493 H       
  46 H46           10.2302     7.3728    -1.6846 H       
  47 H47            7.2912     2.0312    -3.0047 H       
  48 H48            5.7716     1.3087    -3.5852 H       
  49 H49            6.7074     2.3869    -4.6481 H       
  50 H50           -4.6031    -2.7341     0.0613 H       
  51 H51           -4.2045    -0.9382     1.6797 H       
  52 H52           -2.0919     0.3164     1.6631 H       
  53 H53            0.2794    -2.0118    -2.2608 H       
  54 H54           -3.3161    -4.0782    -2.1457 H       
@<TRIPOS>BOND
   1    1    2 ar
   2    1    6 ar
   3    1   34 1
   4    2    3 ar
   5    2   22 1
   6    3    4 ar
   7    3   35 1
   8    4    5 ar
   9    4   36 1
  10    5    6 ar
  11    5    7 1
  12    6   37 1
  13    7    8 1
  14    7   38 1
  15    7   39 1
  16    8    9 am
  17    8   10 2
  18    9   11 1
  19    9   40 1
  20   11   12 1
  21   11   21 1
  22   11   41 1
  23   12   13 ar
  24   12   17 ar
  25   13   14 ar
  26   14   15 ar
  27   14   42 1
  28   15   16 ar
  29   15   18 1
  30   16   17 ar
  31   16   43 1
  32   17   44 1
  33   18   19 1
  34   19   20 1
  35   19   45 1
  36   19   46 1
  37   20   23 1
  38   20   24 1
  39   20   25 1
  40   21   47 1
  41   21   48 1
  42   21   49 1
  43   22   26 ar
  44   22   30 ar
  45   26   27 ar
  46   26   31 1
  47   27   28 ar
  48   27   33 1
  49   28   29 ar
  50   28   50 1
  51   29   30 ar
  52   29   51 1
  53   30   52 1
  54   31   32 2
  55   31   53 1
  56   32   33 1
  57   33   54 1

#	End of record

