#	Name: ASD01811229
#	Creating user name:	WinNT
#	Creation time:	15. 06. 2019 19:26

#	Modifying user name:	WinNT
#	Modification time:	15. 06. 2019 19:26

#	Program:	/corina/corina34_cracker 3.40 0067  02.08.2006

@<TRIPOS>MOLECULE
ASD01811229
  36   37    0    0    0
SMALL
NO_CHARGES


@<TRIPOS>ATOM
   1 C1             0.5058     1.3940    -0.4823 C.2     
   2 C2             0.2559    -0.0414    -0.2376 C.ar    
   3 C3             1.3203    -0.8964     0.0628 C.ar    
   4 C4             1.0897    -2.2385     0.2919 C.ar    
   5 C5            -0.1919    -2.7468     0.2259 C.ar    
   6 C6            -1.2675    -1.9033    -0.0737 C.ar    
   7 C7            -1.0415    -0.5444    -0.3002 C.ar    
   8 O8             1.6305     1.8410    -0.3785 O.2     
   9 O9            -0.5126     2.2060    -0.8259 O.3     
  10 C10            2.7235    -0.3519     0.1363 C.3     
  11 C11           -0.4331    -4.2131     0.4766 C.3     
  12 C12            0.0489    -5.1211    -0.6672 C.3     
  13 C13            0.5435    -6.0924     0.4176 C.3     
  14 C14            0.6455    -4.8743     1.3508 C.3     
  15 C15           -2.6339    -2.4460    -0.1439 C.2     
  16 O16           -2.8168    -3.6413    -0.0542 O.2     
  17 C17           -3.8055    -1.5161    -0.3271 C.3     
  18 Br18          -5.4699    -2.5613    -0.3787 Br      
  19 C19           -0.1936     3.6046    -1.0510 C.3     
  20 H20            1.9164    -2.8937     0.5235 H       
  21 H21           -1.8679     0.1128    -0.5272 H       
  22 H22            2.9075     0.0448     1.1347 H       
  23 H23            3.4347    -1.1507    -0.0740 H       
  24 H24            2.8434     0.4441    -0.5987 H       
  25 H25           -1.4515    -4.4249     0.8025 H       
  26 H26           -0.7606    -5.5227    -1.2766 H       
  27 H27            0.8517    -4.6852    -1.2619 H       
  28 H28           -0.2073    -6.8188     0.7285 H       
  29 H29            1.5065    -6.5489     0.1888 H       
  30 H30            1.6114    -4.3710     1.3077 H       
  31 H31            0.3176    -5.0767     2.3704 H       
  32 H32           -3.8442    -0.8122     0.5042 H       
  33 H33           -3.6916    -0.9680    -1.2624 H       
  34 H34           -1.1008     4.1454    -1.3203 H       
  35 H35            0.2277     4.0321    -0.1411 H       
  36 H36            0.5319     3.6860    -1.8604 H       
@<TRIPOS>BOND
   1    1    2 1
   2    1    8 2
   3    1    9 1
   4    2    3 ar
   5    2    7 ar
   6    3    4 ar
   7    3   10 1
   8    4    5 ar
   9    4   20 1
  10    5    6 ar
  11    5   11 1
  12    6    7 ar
  13    6   15 1
  14    7   21 1
  15    9   19 1
  16   10   22 1
  17   10   23 1
  18   10   24 1
  19   11   12 1
  20   11   14 1
  21   11   25 1
  22   12   13 1
  23   12   26 1
  24   12   27 1
  25   13   14 1
  26   13   28 1
  27   13   29 1
  28   14   30 1
  29   14   31 1
  30   15   16 2
  31   15   17 1
  32   17   18 1
  33   17   32 1
  34   17   33 1
  35   19   34 1
  36   19   35 1
  37   19   36 1

#	End of record

