#	Name: ASD02398005
#	Creating user name:	WinNT
#	Creation time:	15. 06. 2019 20:20

#	Modifying user name:	WinNT
#	Modification time:	15. 06. 2019 20:20

#	Program:	/corina/corina34_cracker 3.40 0067  02.08.2006

@<TRIPOS>MOLECULE
ASD02398005
  50   52    0    0    0
SMALL
NO_CHARGES


@<TRIPOS>ATOM
   1 C1            -0.0169     1.3942     0.0097 C.ar    
   2 C2             0.0021    -0.0041     0.0020 C.ar    
   3 C3            -1.1981    -0.7105     0.0096 C.ar    
   4 C4            -2.3985    -0.0288     0.0247 C.ar    
   5 C5            -2.4141     1.3545     0.0318 C.ar    
   6 C6            -1.2286     2.0654     0.0307 C.ar    
   7 C7            -3.6965    -0.7944     0.0329 C.3     
   8 C8            -4.1157    -1.0572     1.4564 C.2     
   9 O9            -3.4306    -0.6633     2.3704 O.2     
  10 O10           -5.2500    -1.7289     1.7089 O.3     
  11 C11           -5.5914    -1.9456     3.1035 C.3     
  12 C12            1.2946    -0.7315    -0.0147 C.ar    
  13 O13            1.1487     2.0917     0.0023 O.3     
  14 C14            1.0517     3.5174     0.0109 C.3     
  15 C15            2.1649    -0.6364     1.0700 C.ar    
  16 C16            1.6408    -1.5171    -1.1123 C.ar    
  17 C17            2.8450    -2.1918    -1.1224 C.ar    
  18 C18            3.7072    -2.0892    -0.0459 C.ar    
  19 C19            3.3660    -1.3153     1.0490 C.ar    
  20 C20            1.7949     0.2066     2.2631 C.3     
  21 N21            0.8687    -0.5386     3.1192 N.am    
  22 C22            1.2196    -1.3475     4.1282 C.2     
  23 O23            0.1814    -1.9106     4.7564 O.3     
  24 C24           -1.0604    -1.4640     4.1389 C.3     
  25 C25           -0.5984    -0.5159     3.0154 C.3     
  26 O26            2.3752    -1.5513     4.4435 O.2     
  27 C27            5.0204    -2.8283    -0.0629 C.3     
  28 F28            5.1388    -3.5414    -1.2607 F       
  29 F29            6.0725    -1.9120     0.0403 F       
  30 F30            5.0690    -3.7176     1.0160 F       
  31 H31           -1.1897    -1.7904     0.0034 H       
  32 H32           -3.3568     1.8813     0.0429 H       
  33 H33           -1.2472     3.1452     0.0363 H       
  34 H34           -4.4664    -0.2096    -0.4705 H       
  35 H35           -3.5623    -1.7428    -0.4873 H       
  36 H36           -5.7031    -0.9836     3.6038 H       
  37 H37           -6.5284    -2.4988     3.1665 H       
  38 H38           -4.7990    -2.5168     3.5870 H       
  39 H39            2.0522     3.9498     0.0037 H       
  40 H40            0.5059     3.8497    -0.8721 H       
  41 H41            0.5228     3.8402     0.9077 H       
  42 H42            0.9681    -1.5981    -1.9533 H       
  43 H43            3.1142    -2.8012    -1.9724 H       
  44 H44            4.0431    -1.2388     1.8869 H       
  45 H45            2.6945     0.4516     2.8278 H       
  46 H46            1.3170     1.1258     1.9243 H       
  47 H47           -1.6085    -2.3113     3.7269 H       
  48 H48           -1.6741    -0.9253     4.8609 H       
  49 H49           -0.9834     0.4903     3.1811 H       
  50 H50           -0.9144    -0.8925     2.0426 H       
@<TRIPOS>BOND
   1    1    2 ar
   2    1   13 1
   3    1    6 ar
   4    2    3 ar
   5    2   12 1
   6    3    4 ar
   7    3   31 1
   8    4    5 ar
   9    4    7 1
  10    5    6 ar
  11    5   32 1
  12    6   33 1
  13    7    8 1
  14    7   34 1
  15    7   35 1
  16    8    9 2
  17    8   10 1
  18   10   11 1
  19   11   36 1
  20   11   37 1
  21   11   38 1
  22   12   15 ar
  23   12   16 ar
  24   13   14 1
  25   14   39 1
  26   14   40 1
  27   14   41 1
  28   15   20 1
  29   15   19 ar
  30   16   17 ar
  31   16   42 1
  32   17   18 ar
  33   17   43 1
  34   18   19 ar
  35   18   27 1
  36   19   44 1
  37   20   21 1
  38   20   45 1
  39   20   46 1
  40   21   22 am
  41   21   25 1
  42   22   23 1
  43   22   26 2
  44   23   24 1
  45   24   25 1
  46   24   47 1
  47   24   48 1
  48   25   49 1
  49   25   50 1
  50   27   28 1
  51   27   29 1
  52   27   30 1

#	End of record

