#	Name: ASD01148898
#	Creating user name:	WinNT
#	Creation time:	15. 06. 2019 19:03

#	Modifying user name:	WinNT
#	Modification time:	15. 06. 2019 19:03

#	Program:	/corina/corina34_cracker 3.40 0067  02.08.2006

@<TRIPOS>MOLECULE
ASD01148898
  28   28    0    0    0
SMALL
NO_CHARGES


@<TRIPOS>ATOM
   1 C1            -0.0184     1.5028     0.0103 C.2     
   2 C2             0.0021    -0.0041     0.0020 C.3     
   3 C3             1.4513    -0.4944    -0.0145 C.3     
   4 C4             1.4717    -2.0012    -0.0227 C.2     
   5 C5             2.7869    -2.7369    -0.0392 C.3     
   6 O6             1.0234     2.1233     0.0037 O.2     
   7 O7             0.4342    -2.6192    -0.0162 O.2     
   8 C8            -1.3027     2.2212     0.0203 C.ar    
   9 C9            -1.3259     3.6197     0.0280 C.ar    
  10 C10           -2.5331     4.2854     0.0374 C.ar    
  11 C11           -3.7202     3.5735     0.0397 C.ar    
  12 C12           -3.7057     2.1898     0.0321 C.ar    
  13 C13           -2.5062     1.5093     0.0164 C.ar    
  14 C14           -2.5604     5.7922     0.0457 C.3     
  15 F15           -2.5751     6.2656    -1.2707 F       
  16 F16           -3.7078     6.2341     0.7131 F       
  17 F17           -1.4236     6.2756     0.7024 F       
  18 H18           -0.4983    -0.3791     0.8948 H       
  19 H19           -0.5153    -0.3696    -0.8850 H       
  20 H20            1.9516    -0.1193    -0.9073 H       
  21 H21            1.9686    -0.1289     0.8726 H       
  22 H22            3.6056    -2.0174    -0.0432 H       
  23 H23            2.8616    -3.3675     0.8467 H       
  24 H24            2.8446    -3.3579    -0.9332 H       
  25 H25           -0.4005     4.1766     0.0270 H       
  26 H26           -4.6628     4.1007     0.0478 H       
  27 H27           -4.6361     1.6413     0.0339 H       
  28 H28           -2.4965     0.4294     0.0059 H       
@<TRIPOS>BOND
   1    1    2 1
   2    1    6 2
   3    1    8 1
   4    2    3 1
   5    2   18 1
   6    2   19 1
   7    3    4 1
   8    3   20 1
   9    3   21 1
  10    4    5 1
  11    4    7 2
  12    5   22 1
  13    5   23 1
  14    5   24 1
  15    8    9 ar
  16    8   13 ar
  17    9   10 ar
  18    9   25 1
  19   10   11 ar
  20   10   14 1
  21   11   12 ar
  22   11   26 1
  23   12   13 ar
  24   12   27 1
  25   13   28 1
  26   14   15 1
  27   14   16 1
  28   14   17 1

#	End of record

