#	Name: ASD05430404
#	Creating user name:	WinNT
#	Creation time:	15. 06. 2019 21:00

#	Modifying user name:	WinNT
#	Modification time:	15. 06. 2019 21:00

#	Program:	/corina/corina34_cracker 3.40 0067  02.08.2006

@<TRIPOS>MOLECULE
ASD05430404
  56   60    0    0    0
SMALL
NO_CHARGES


@<TRIPOS>ATOM
   1 C1            -0.0168     1.3911     0.0097 C.ar    
   2 C2             0.0021    -0.0041     0.0020 C.ar    
   3 C3            -1.1897    -0.7190     0.0091 C.ar    
   4 C4            -2.3954    -0.0542     0.0237 C.ar    
   5 C5            -2.4227     1.3458     0.0320 C.ar    
   6 C6            -1.2220     2.0655     0.0306 C.ar    
   7 C7            -4.8671     1.3600     0.0539 C.2     
   8 C8            -3.7079     2.0574     0.0475 C.2     
   9 C9            -6.1051     2.0455     0.0689 C.2     
  10 O10            1.1512     2.0867     0.0023 O.3     
  11 C11            1.0572     3.5126     0.0108 C.3     
  12 C12            1.5998    -1.7059     0.8223 C.2     
  13 N13            1.2247    -0.6855    -0.0133 N.pl3   
  14 C14            2.8456    -2.0675     0.4614 C.2     
  15 N15            3.2259    -1.2928    -0.5656 N.2     
  16 C16            2.2640    -0.4611    -0.8593 C.2     
  17 C17            3.6704    -3.1545     1.1011 C.3     
  18 N18           -7.3148     1.4347     0.0763 N.pl3   
  19 C19           -8.3200     2.5016     0.2939 C.3     
  20 C20           -7.4955     3.7606     0.1652 C.2     
  21 N21           -6.2266     3.3649     0.0832 N.2     
  22 O22           -7.9070     4.9044     0.1457 O.2     
  23 C23           -7.6873     0.0383    -0.1601 C.3     
  24 C24           -8.7821     0.0522    -1.2419 C.3     
  25 O25           -9.7795     1.0173    -0.9072 O.3     
  26 C26           -9.3332     2.3770    -0.8491 C.3     
  27 C27           -8.9733     2.3945     1.6477 C.ar    
  28 C28           -9.9391     3.3098     2.0228 C.ar    
  29 C29           -8.6105     1.3777     2.5112 C.ar    
  30 C30           -9.2096     1.2780     3.7526 C.ar    
  31 C31          -10.1732     2.1972     4.1315 C.ar    
  32 C32          -10.5392     3.2123     3.2639 C.ar    
  33 F33          -10.7596     2.1007     5.3448 F       
  34 H34           -1.1701    -1.7988     0.0028 H       
  35 H35           -3.3200    -0.6125     0.0285 H       
  36 H36           -1.2380     3.1453     0.0372 H       
  37 H37           -4.8478     0.2802     0.0476 H       
  38 H38           -3.7272     3.1372     0.0539 H       
  39 H39            0.5121     3.8461    -0.8722 H       
  40 H40            0.5291     3.8365     0.9076 H       
  41 H41            2.0587     3.9428     0.0036 H       
  42 H42            1.0108    -2.1342     1.6198 H       
  43 H43            2.2897     0.2812    -1.6434 H       
  44 H44            3.4794    -4.1009     0.5952 H       
  45 H45            4.7282    -2.9048     1.0174 H       
  46 H46            3.4003    -3.2439     2.1533 H       
  47 H47           -6.8224    -0.5243    -0.5116 H       
  48 H48           -8.0746    -0.4050     0.7572 H       
  49 H49           -8.3381     0.3085    -2.2038 H       
  50 H50           -9.2402    -0.9348    -1.3067 H       
  51 H51          -10.1819     3.0347    -0.6613 H       
  52 H52           -8.8587     2.6486    -1.7921 H       
  53 H53          -10.2244     4.1015     1.3459 H       
  54 H54           -7.8589     0.6608     2.2154 H       
  55 H55           -8.9266     0.4831     4.4267 H       
  56 H56          -11.2905     3.9301     3.5585 H       
@<TRIPOS>BOND
   1    1    2 ar
   2    1   10 1
   3    1    6 ar
   4    2    3 ar
   5    2   13 1
   6    3    4 ar
   7    3   34 1
   8    4    5 ar
   9    4   35 1
  10    5    6 ar
  11    5    8 1
  12    6   36 1
  13    7    8 2
  14    7    9 1
  15    7   37 1
  16    8   38 1
  17    9   18 1
  18    9   21 2
  19   10   11 1
  20   11   39 1
  21   11   40 1
  22   11   41 1
  23   12   13 1
  24   12   14 2
  25   12   42 1
  26   13   16 1
  27   14   15 1
  28   14   17 1
  29   15   16 2
  30   16   43 1
  31   17   44 1
  32   17   45 1
  33   17   46 1
  34   18   19 1
  35   18   23 1
  36   19   20 1
  37   19   27 1
  38   19   26 1
  39   20   21 1
  40   20   22 2
  41   23   24 1
  42   23   47 1
  43   23   48 1
  44   24   25 1
  45   24   49 1
  46   24   50 1
  47   25   26 1
  48   26   51 1
  49   26   52 1
  50   27   28 ar
  51   27   29 ar
  52   28   32 ar
  53   28   53 1
  54   29   30 ar
  55   29   54 1
  56   30   31 ar
  57   30   55 1
  58   31   32 ar
  59   31   33 1
  60   32   56 1

#	End of record

