#	Name: ASD01150688
#	Creating user name:	WinNT
#	Creation time:	15. 06. 2019 19:04

#	Modifying user name:	WinNT
#	Modification time:	15. 06. 2019 19:04

#	Program:	/corina/corina34_cracker 3.40 0067  02.08.2006

@<TRIPOS>MOLECULE
ASD01150688
  39   42    0    0    0
SMALL
NO_CHARGES


@<TRIPOS>ATOM
   1 C1            -0.0244     1.5048    -0.0115 C.2     
   2 C2            -0.6577     1.2997     1.3405 C.3     
   3 C3             3.6971     3.4703    -0.3225 C.ar    
   4 C4             2.5464     4.2536    -0.3672 C.ar    
   5 C5             1.2814     3.6176    -0.2661 C.ar    
   6 C6             1.2522     2.2164    -0.1224 C.ar    
   7 C7             2.4654     1.5146    -0.0869 C.ar    
   8 N8             3.6106     2.1406    -0.1852 N.ar    
   9 C9             2.8387     5.6823    -0.5184 C.2     
  10 C10            4.1321     5.9622    -0.5849 C.2     
  11 S11            5.1125     4.5026    -0.4619 S.3     
  12 C12            4.3464     7.4654    -0.7411 C.3     
  13 C13            3.0088     8.1014    -0.3135 C.3     
  14 C14            2.0140     6.9652    -0.6225 C.3     
  15 C15            2.4505     0.0155     0.0664 C.3     
  16 C16            0.0301     4.4034    -0.3097 C.ar    
  17 C17           -0.8658     4.2362    -1.3675 C.ar    
  18 C18           -2.0317     4.9713    -1.4030 C.ar    
  19 C19           -2.3152     5.8752    -0.3908 C.ar    
  20 C20           -1.4290     6.0455     0.6615 C.ar    
  21 C21           -0.2630     5.3113     0.7098 C.ar    
  22 F22           -3.4590     6.5930    -0.4304 F       
  23 F23           -0.8625    -0.0672     1.5569 F       
  24 F24            0.1873     1.8075     2.3332 F       
  25 F25           -1.8857     1.9683     1.3865 F       
  26 O26           -0.5687     1.0766    -1.0076 O.2     
  27 H27            5.1524     7.8034    -0.0899 H       
  28 H28            4.5683     7.7110    -1.7796 H       
  29 H29            3.0117     8.3398     0.7501 H       
  30 H30            2.7885     8.9866    -0.9102 H       
  31 H31            1.6117     7.0767    -1.6294 H       
  32 H32            1.2072     6.9579     0.1104 H       
  33 H33            2.3182    -0.4484    -0.9111 H       
  34 H34            3.3942    -0.3147     0.5005 H       
  35 H35            1.6284    -0.2747     0.7205 H       
  36 H36           -0.6457     3.5326    -2.1568 H       
  37 H37           -2.7252     4.8430    -2.2209 H       
  38 H38           -1.6544     6.7515     1.4471 H       
  39 H39            0.4245     5.4413     1.5326 H       
@<TRIPOS>BOND
   1    1    2 1
   2    1    6 1
   3    1   26 2
   4    2   23 1
   5    2   24 1
   6    2   25 1
   7    3    4 ar
   8    3    8 ar
   9    3   11 1
  10    4    5 ar
  11    4    9 1
  12    5    6 ar
  13    5   16 1
  14    6    7 ar
  15    7    8 ar
  16    7   15 1
  17    9   10 2
  18    9   14 1
  19   10   11 1
  20   10   12 1
  21   12   13 1
  22   12   27 1
  23   12   28 1
  24   13   14 1
  25   13   29 1
  26   13   30 1
  27   14   31 1
  28   14   32 1
  29   15   33 1
  30   15   34 1
  31   15   35 1
  32   16   17 ar
  33   16   21 ar
  34   17   18 ar
  35   17   36 1
  36   18   19 ar
  37   18   37 1
  38   19   20 ar
  39   19   22 1
  40   20   21 ar
  41   20   38 1
  42   21   39 1

#	End of record

