#	Name: ASD02448139
#	Creating user name:	WinNT
#	Creation time:	15. 06. 2019 20:21

#	Modifying user name:	WinNT
#	Modification time:	15. 06. 2019 20:21

#	Program:	/corina/corina34_cracker 3.40 0067  02.08.2006

@<TRIPOS>MOLECULE
ASD02448139
  89   95    0    0    0
SMALL
NO_CHARGES


@<TRIPOS>ATOM
   1 C1            -0.2019    -6.4685     3.4829 C.ar    
   2 C2             0.3223    -5.4170     2.7562 C.ar    
   3 C3             0.2192    -5.4081     1.3711 C.ar    
   4 C4            -0.4109    -6.4562     0.7171 C.ar    
   5 C5            -0.9369    -7.5115     1.4496 C.ar    
   6 C6            -0.8305    -7.5145     2.8349 C.ar    
   7 N7            -1.5727    -8.5689     0.7949 N.am    
   8 C8            -1.7391    -9.9510     1.2630 C.3     
   9 C9            -2.4820   -10.7776     0.2636 C.2     
  10 N10           -2.8491   -10.1214    -0.8461 N.am    
  11 S11           -2.3233    -8.5493    -0.6949 S.o2    
  12 O12           -2.7326   -11.9507     0.4425 O.2     
  13 O13           -3.4787    -7.7300    -0.5796 O.2     
  14 O14           -1.3054    -8.3523    -1.6666 O.2     
  15 N15            0.7512    -4.3402     0.6347 N.pl3   
  16 C16            1.6683    -4.4296    -0.3783 C.2     
  17 C17            0.4483    -3.0244     0.7897 C.2     
  18 N18            1.1378    -2.3289    -0.0707 N.2     
  19 C19            1.9010    -3.1618    -0.8073 C.2     
  20 C20            2.8299    -2.7640    -1.8936 C.ar    
  21 C21            2.9732    -1.4194    -2.2343 C.ar    
  22 C22            3.5666    -3.7323    -2.5731 C.ar    
  23 C23            4.4296    -3.3574    -3.5824 C.ar    
  24 C24            4.5648    -2.0216    -3.9209 C.ar    
  25 C25            3.8399    -1.0549    -3.2462 C.ar    
  26 C26           -1.8701    -2.2754     1.1365 C.ar    
  27 C27           -2.7606    -3.3323     1.0785 C.ar    
  28 C28           -2.2109    -1.0468     0.6000 C.ar    
  29 C29           -3.4428    -0.8690     0.0038 C.ar    
  30 C30           -4.3440    -1.9303    -0.0574 C.ar    
  31 C31           -3.9950    -3.1662     0.4839 C.ar    
  32 C32           -5.6698    -1.7452    -0.6966 C.ar    
  33 Cl33           5.6530    -1.5572    -5.1914 Cl      
  34 Cl34           2.0637    -0.2062    -1.3889 Cl      
  35 C35           -0.5260    -2.4615     1.7922 C.3     
  36 C36           -6.5701    -2.8079    -0.7570 C.ar    
  37 C37           -7.8018    -2.6336    -1.3509 C.ar    
  38 C38           -8.1465    -1.3991    -1.8894 C.ar    
  39 C39           -7.2501    -0.3382    -1.8306 C.ar    
  40 C40           -6.0195    -0.5067    -1.2324 C.ar    
  41 N41           -9.3941    -1.2248    -2.4902 N.pl3   
  42 C42           -9.7584     0.0756    -3.0580 C.3     
  43 C43           -9.3293     0.1296    -4.5256 C.3     
  44 C44           -9.8195     1.4363    -5.1526 C.3     
  45 C45          -10.3394    -2.3423    -2.5532 C.3     
  46 C46           -7.8033     0.0627    -4.6136 C.3     
  47 C47           -7.3742     0.1166    -6.0812 C.3     
  48 C48           -7.8644     1.4234    -6.7081 C.3     
  49 C49           -9.3904     1.4903    -6.6202 C.3     
  50 C50          -11.2243    -2.3326    -1.3051 C.3     
  51 H51           -0.1164    -6.4751     4.5595 H       
  52 H52            0.8127    -4.6008     3.2658 H       
  53 H53           -0.4926    -6.4511    -0.3598 H       
  54 H54           -1.2390    -8.3353     3.4056 H       
  55 H55           -0.7565   -10.3917     1.4311 H       
  56 H56           -2.2913    -9.9455     2.2028 H       
  57 H57           -3.3351   -10.4938    -1.5985 H       
  58 H58            2.1194    -5.3328    -0.7616 H       
  59 H59            3.4625    -4.7746    -2.3100 H       
  60 H60            5.0011    -4.1074    -4.1091 H       
  61 H61            3.9486    -0.0143    -3.5143 H       
  62 H62           -2.4894    -4.2894     1.4989 H       
  63 H63           -1.5117    -0.2251     0.6481 H       
  64 H64           -3.7081     0.0908    -0.4141 H       
  65 H65           -4.6895    -3.9920     0.4391 H       
  66 H66           -0.6232    -3.1507     2.6310 H       
  67 H67           -0.1614    -1.4996     2.1526 H       
  68 H68           -6.3025    -3.7671    -0.3391 H       
  69 H69           -8.4994    -3.4567    -1.3982 H       
  70 H70           -7.5195     0.6198    -2.2501 H       
  71 H71           -5.3235     0.3179    -1.1866 H       
  72 H72          -10.8376     0.2124    -2.9897 H       
  73 H73           -9.2559     0.8679    -2.5032 H       
  74 H74           -9.7615    -0.7153    -5.0618 H       
  75 H75          -10.9066     1.4840    -5.0899 H       
  76 H76           -9.3872     2.2811    -4.6163 H       
  77 H77          -10.9629    -2.2412    -3.4415 H       
  78 H78           -9.7887    -3.2818    -2.6008 H       
  79 H79           -7.3711     0.9075    -4.0773 H       
  80 H80           -7.4541    -0.8683    -4.1669 H       
  81 H81           -6.2870     0.0690    -6.1438 H       
  82 H82           -7.8064    -0.7282    -6.6174 H       
  83 H83           -7.4321     2.2682    -6.1719 H       
  84 H84           -7.5587     1.4618    -7.7537 H       
  85 H85           -9.8226     0.6455    -7.1564 H       
  86 H86           -9.7396     2.4212    -7.0668 H       
  87 H87          -10.6008    -2.4337    -0.4168 H       
  88 H88          -11.7750    -1.3931    -1.2575 H       
  89 H89          -11.9276    -3.1640    -1.3519 H       
@<TRIPOS>BOND
   1    1    2 ar
   2    1    6 ar
   3    1   51 1
   4    2    3 ar
   5    2   52 1
   6    3    4 ar
   7    3   15 1
   8    4    5 ar
   9    4   53 1
  10    5    6 ar
  11    5    7 1
  12    6   54 1
  13    7    8 1
  14    7   11 am
  15    8    9 1
  16    8   55 1
  17    8   56 1
  18    9   10 am
  19    9   12 2
  20   10   11 am
  21   10   57 1
  22   11   13 2
  23   11   14 2
  24   15   16 1
  25   15   17 1
  26   16   19 2
  27   16   58 1
  28   17   18 2
  29   17   35 1
  30   18   19 1
  31   19   20 1
  32   20   21 ar
  33   20   22 ar
  34   21   34 1
  35   21   25 ar
  36   22   23 ar
  37   22   59 1
  38   23   24 ar
  39   23   60 1
  40   24   25 ar
  41   24   33 1
  42   25   61 1
  43   26   27 ar
  44   26   28 ar
  45   26   35 1
  46   27   31 ar
  47   27   62 1
  48   28   29 ar
  49   28   63 1
  50   29   30 ar
  51   29   64 1
  52   30   31 ar
  53   30   32 1
  54   31   65 1
  55   32   36 ar
  56   32   40 ar
  57   35   66 1
  58   35   67 1
  59   36   37 ar
  60   36   68 1
  61   37   38 ar
  62   37   69 1
  63   38   39 ar
  64   38   41 1
  65   39   40 ar
  66   39   70 1
  67   40   71 1
  68   41   42 1
  69   41   45 1
  70   42   43 1
  71   42   72 1
  72   42   73 1
  73   43   44 1
  74   43   46 1
  75   43   74 1
  76   44   49 1
  77   44   75 1
  78   44   76 1
  79   45   50 1
  80   45   77 1
  81   45   78 1
  82   46   47 1
  83   46   79 1
  84   46   80 1
  85   47   48 1
  86   47   81 1
  87   47   82 1
  88   48   49 1
  89   48   83 1
  90   48   84 1
  91   49   85 1
  92   49   86 1
  93   50   87 1
  94   50   88 1
  95   50   89 1

#	End of record

