#	Name: ASD01913204
#	Creating user name:	WinNT
#	Creation time:	15. 06. 2019 20:01

#	Modifying user name:	WinNT
#	Modification time:	15. 06. 2019 20:01

#	Program:	/corina/corina34_cracker 3.40 0067  02.08.2006

@<TRIPOS>MOLECULE
ASD01913204
  47   50    0    0    0
SMALL
NO_CHARGES


@<TRIPOS>ATOM
   1 C1             0.0759     1.2445     1.0382 C.ar    
   2 C2             0.0686    -0.1059     0.7407 C.ar    
   3 C3             1.2733    -0.7675     0.5844 C.ar    
   4 C4             2.4498    -0.0506     0.7324 C.ar    
   5 C5             2.3801     1.2976     1.0305 C.ar    
   6 N6             1.2139     1.8972     1.1720 N.ar    
   7 N7            -0.4557    -2.3950     0.2409 N.am    
   8 C8            -1.0542    -1.0881     0.5341 C.3     
   9 C9             1.0000    -2.2130     0.2682 C.3     
  10 C10            3.6507     2.0911     1.1947 C.3     
  11 C11           -1.1166    -3.5434    -0.0059 C.2     
  12 C12           -2.5869    -3.5905     0.1192 C.ar    
  13 C13           -3.2568    -4.8087     0.0148 C.ar    
  14 C14           -4.6442    -4.8469     0.1343 C.ar    
  15 C15           -5.3575    -3.6578     0.3589 C.ar    
  16 C16           -4.6802    -2.4512     0.4606 C.ar    
  17 C17           -3.3073    -2.4139     0.3482 C.ar    
  18 O18           -0.5019    -4.5405    -0.3317 O.2     
  19 C19           -5.3407    -6.0936     0.0279 C.1     
  20 C20           -5.9117    -7.1157    -0.0592 C.1     
  21 C21           -6.6082    -8.3624    -0.1655 C.ar    
  22 C22           -8.0003    -8.3920    -0.0445 C.ar    
  23 C23           -8.6574    -9.6040    -0.1497 C.ar    
  24 C24           -7.9050   -10.7498    -0.3725 C.ar    
  25 C25           -6.5303   -10.6495    -0.4823 C.ar    
  26 N26           -5.9264    -9.4829    -0.3841 N.ar    
  27 O27           -6.7082    -3.6891     0.4760 O.3     
  28 C28           -7.3687    -2.4426     0.7036 C.3     
  29 H29           -0.8596     1.7708     1.1577 H       
  30 H30            3.4068    -0.5377     0.6171 H       
  31 H31           -1.6591    -1.1533     1.4386 H       
  32 H32           -1.6743    -0.7694    -0.3038 H       
  33 H33            1.4222    -2.4648    -0.7046 H       
  34 H34            1.4375    -2.8488     1.0380 H       
  35 H35            3.9484     2.5038     0.2308 H       
  36 H36            3.4829     2.9036     1.9016 H       
  37 H37            4.4398     1.4398     1.5704 H       
  38 H38           -2.7023    -5.7192    -0.1583 H       
  39 H39           -5.2308    -1.5382     0.6330 H       
  40 H40           -2.7860    -1.4719     0.4332 H       
  41 H41           -8.5547    -7.4816     0.1289 H       
  42 H42           -9.7323    -9.6585    -0.0602 H       
  43 H43           -8.3894   -11.7112    -0.4588 H       
  44 H44           -5.9437   -11.5397    -0.6556 H       
  45 H45           -8.4434    -2.6090     0.7777 H       
  46 H46           -7.0044    -2.0026     1.6320 H       
  47 H47           -7.1622    -1.7653    -0.1250 H       
@<TRIPOS>BOND
   1    1    2 ar
   2    1    6 ar
   3    1   29 1
   4    2    3 ar
   5    2    8 1
   6    3    4 ar
   7    3    9 1
   8    4    5 ar
   9    4   30 1
  10    5    6 ar
  11    5   10 1
  12    7    8 1
  13    7    9 1
  14    7   11 am
  15    8   31 1
  16    8   32 1
  17    9   33 1
  18    9   34 1
  19   10   35 1
  20   10   36 1
  21   10   37 1
  22   11   12 1
  23   11   18 2
  24   12   13 ar
  25   12   17 ar
  26   13   14 ar
  27   13   38 1
  28   14   15 ar
  29   14   19 1
  30   15   16 ar
  31   15   27 1
  32   16   17 ar
  33   16   39 1
  34   17   40 1
  35   19   20 3
  36   20   21 1
  37   21   22 ar
  38   21   26 ar
  39   22   23 ar
  40   22   41 1
  41   23   24 ar
  42   23   42 1
  43   24   25 ar
  44   24   43 1
  45   25   26 ar
  46   25   44 1
  47   27   28 1
  48   28   45 1
  49   28   46 1
  50   28   47 1

#	End of record

