#	Name: ASD08070188
#	Creating user name:	WinNT
#	Creation time:	15. 06. 2019 21:14

#	Modifying user name:	WinNT
#	Modification time:	15. 06. 2019 21:14

#	Program:	/corina/corina34_cracker 3.40 0067  02.08.2006

@<TRIPOS>MOLECULE
ASD08070188
  41   42    0    0    0
SMALL
NO_CHARGES


@<TRIPOS>ATOM
   1 C1            -0.0167     1.3805     0.0096 C.ar    
   2 C2             0.0021    -0.0041     0.0020 C.ar    
   3 C3            -1.1849    -0.7157     0.0100 C.ar    
   4 C4            -2.4055    -0.0329     0.0258 C.ar    
   5 C5            -2.4163     1.3658     0.0334 C.ar    
   6 C6            -1.2211     2.0635     0.0306 C.ar    
   7 C7            -3.6754    -0.7843     0.0339 C.2     
   8 N8            -4.2667    -1.1208    -1.1296 N.am    
   9 F9            -3.5905     2.0338     0.0486 F       
  10 O10           -4.1883    -1.0998     1.0901 O.2     
  11 C11           -5.5275    -1.8668    -1.1215 C.3     
  12 F12           -1.2295     3.4145     0.0379 F       
  13 C13            1.2803     2.1479     0.0014 C.3     
  14 F14            1.1820    -0.6619    -0.0137 F       
  15 F15           -1.1646    -2.0666     0.0021 F       
  16 C16           -6.2896    -1.5943    -2.4201 C.3     
  17 C17           -7.7466    -2.0320    -2.2573 C.3     
  18 C18           -8.2720    -1.5637    -0.8990 C.3     
  19 C19           -8.5429    -2.7791    -0.0100 C.3     
  20 C20           -7.2160    -3.3327     0.5137 C.3     
  21 C21           -6.5096    -4.1046    -0.6024 C.3     
  22 C22           -5.2335    -3.3640    -1.0072 C.3     
  23 H23           -3.8575    -0.8690    -1.9722 H       
  24 H24           -6.1321    -1.5493    -0.2720 H       
  25 H25            1.5831     2.3384    -1.0282 H       
  26 H26            1.1447     3.0961     0.5216 H       
  27 H27            2.0510     1.5642     0.5047 H       
  28 H28           -6.2534    -0.5286    -2.6459 H       
  29 H29           -5.8308    -2.1543    -3.2350 H       
  30 H30           -8.3491    -1.5911    -3.0515 H       
  31 H31           -7.8081    -3.1187    -2.3156 H       
  32 H32           -7.5289    -0.9239    -0.4230 H       
  33 H33           -9.1964    -1.0038    -1.0404 H       
  34 H34           -9.1698    -2.4820     0.8307 H       
  35 H35           -9.0535    -3.5475    -0.5905 H       
  36 H36           -6.5830    -2.5085     0.8425 H       
  37 H37           -7.4072    -4.0012     1.3531 H       
  38 H38           -6.2532    -5.1028    -0.2475 H       
  39 H39           -7.1721    -4.1846    -1.4642 H       
  40 H40           -4.8846    -3.7403    -1.9688 H       
  41 H41           -4.4641    -3.5266    -0.2524 H       
@<TRIPOS>BOND
   1    1    2 ar
   2    1   13 1
   3    1    6 ar
   4    2    3 ar
   5    2   14 1
   6    3    4 ar
   7    3   15 1
   8    4    5 ar
   9    4    7 1
  10    5    6 ar
  11    5    9 1
  12    6   12 1
  13    7    8 am
  14    7   10 2
  15    8   11 1
  16    8   23 1
  17   11   16 1
  18   11   22 1
  19   11   24 1
  20   13   25 1
  21   13   26 1
  22   13   27 1
  23   16   17 1
  24   16   28 1
  25   16   29 1
  26   17   18 1
  27   17   30 1
  28   17   31 1
  29   18   19 1
  30   18   32 1
  31   18   33 1
  32   19   20 1
  33   19   34 1
  34   19   35 1
  35   20   21 1
  36   20   36 1
  37   20   37 1
  38   21   22 1
  39   21   38 1
  40   21   39 1
  41   22   40 1
  42   22   41 1

#	End of record

