#	Name: ASD04370054
#	Creating user name:	WinNT
#	Creation time:	15. 06. 2019 20:49

#	Modifying user name:	WinNT
#	Modification time:	15. 06. 2019 20:49

#	Program:	/corina/corina34_cracker 3.40 0067  02.08.2006

@<TRIPOS>MOLECULE
ASD04370054
  63   63    0    0    0
SMALL
NO_CHARGES


@<TRIPOS>ATOM
   1 C1             3.4831    -1.6849     0.8419 C.2     
   2 C2             2.3766    -0.7244     1.1943 C.3     
   3 C3             1.5317    -0.4412    -0.0493 C.3     
   4 C4             0.3346     0.4306     0.3351 C.3     
   5 O5             3.5310    -2.1723    -0.2627 O.2     
   6 O6             4.4187    -1.9946     1.7532 O.3     
   7 N7             2.3470     0.2599    -1.0443 N.am    
   8 C8             2.9584     1.4165    -0.7205 C.2     
   9 C9             3.8836     2.0816    -1.7068 C.3     
  10 C10            4.4410     3.3686    -1.0953 C.3     
  11 C11            5.3804     4.0438    -2.0966 C.3     
  12 C12            5.9378     5.3307    -1.4851 C.3     
  13 C13            6.8771     6.0059    -2.4864 C.3     
  14 C14            7.4346     7.2929    -1.8750 C.3     
  15 C15            8.3739     7.9681    -2.8763 C.3     
  16 C16            8.9313     9.2551    -2.2648 C.3     
  17 C17            9.8707     9.9303    -3.2661 C.3     
  18 O18            2.7639     1.9221     0.3646 O.2     
  19 C19           10.4197    11.1979    -2.6638 C.ar    
  20 C20           11.5945    11.1649    -1.9360 C.ar    
  21 C21           12.0981    12.3277    -1.3835 C.ar    
  22 C22           11.4272    13.5235    -1.5592 C.ar    
  23 C23           10.2529    13.5566    -2.2878 C.ar    
  24 C24            9.7516    12.3946    -2.8439 C.ar    
  25 N25           -0.4066     0.8063    -0.8763 N.3     
  26 C26           -1.1973    -0.3240    -1.3815 C.3     
  27 C27           -1.2593     1.9769    -0.6299 C.3     
  28 H28            1.7475    -1.1633     1.9688 H       
  29 H29            2.8073     0.2073     1.5609 H       
  30 H30            1.1760    -1.3823    -0.4690 H       
  31 H31           -0.3211    -0.1270     1.0039 H       
  32 H32            0.6874     1.3305     0.8389 H       
  33 H33            5.1085    -2.6151     1.4809 H       
  34 H34            2.4467    -0.1083    -1.9362 H       
  35 H35            4.7058     1.4070    -1.9455 H       
  36 H36            3.3335     2.3204    -2.6170 H       
  37 H37            3.6188     4.0432    -0.8565 H       
  38 H38            4.9911     3.1298    -0.1851 H       
  39 H39            6.2025     3.3691    -2.3354 H       
  40 H40            4.8303     4.2825    -3.0068 H       
  41 H41            5.1156     6.0053    -1.2463 H       
  42 H42            6.4879     5.0919    -0.5749 H       
  43 H43            7.6993     5.3313    -2.7252 H       
  44 H44            6.3270     6.2447    -3.3966 H       
  45 H45            6.6124     7.9675    -1.6362 H       
  46 H46            7.9846     7.0541    -0.9647 H       
  47 H47            9.1961     7.2935    -3.1150 H       
  48 H48            7.8238     8.2069    -3.7865 H       
  49 H49            8.1091     9.9297    -2.0260 H       
  50 H50            9.4814     9.0163    -1.3546 H       
  51 H51           10.6929     9.2557    -3.5049 H       
  52 H52            9.3206    10.1690    -4.1763 H       
  53 H53           12.1187    10.2307    -1.7987 H       
  54 H54           13.0155    12.3018    -0.8143 H       
  55 H55           11.8202    14.4318    -1.1269 H       
  56 H56            9.7285    14.4907    -2.4248 H       
  57 H57            8.8361    12.4210    -3.4163 H       
  58 H58           -1.9100    -0.6384    -0.6191 H       
  59 H59           -1.7359    -0.0185    -2.2785 H       
  60 H60           -0.5326    -1.1538    -1.6217 H       
  61 H61           -0.6339     2.8420    -0.4098 H       
  62 H62           -1.8620     2.1801    -1.5151 H       
  63 H63           -1.9146     1.7771     0.2179 H       
@<TRIPOS>BOND
   1    1    2 1
   2    1    5 2
   3    1    6 1
   4    2    3 1
   5    2   28 1
   6    2   29 1
   7    3    4 1
   8    3    7 1
   9    3   30 1
  10    4   25 1
  11    4   31 1
  12    4   32 1
  13    6   33 1
  14    7    8 am
  15    7   34 1
  16    8    9 1
  17    8   18 2
  18    9   10 1
  19    9   35 1
  20    9   36 1
  21   10   11 1
  22   10   37 1
  23   10   38 1
  24   11   12 1
  25   11   39 1
  26   11   40 1
  27   12   13 1
  28   12   41 1
  29   12   42 1
  30   13   14 1
  31   13   43 1
  32   13   44 1
  33   14   15 1
  34   14   45 1
  35   14   46 1
  36   15   16 1
  37   15   47 1
  38   15   48 1
  39   16   17 1
  40   16   49 1
  41   16   50 1
  42   17   19 1
  43   17   51 1
  44   17   52 1
  45   19   20 ar
  46   19   24 ar
  47   20   21 ar
  48   20   53 1
  49   21   22 ar
  50   21   54 1
  51   22   23 ar
  52   22   55 1
  53   23   24 ar
  54   23   56 1
  55   24   57 1
  56   25   26 1
  57   25   27 1
  58   26   58 1
  59   26   59 1
  60   26   60 1
  61   27   61 1
  62   27   62 1
  63   27   63 1

#	End of record

