#	Name: ASD03331457
#	Creating user name:	WinNT
#	Creation time:	15. 06. 2019 20:39

#	Modifying user name:	WinNT
#	Modification time:	15. 06. 2019 20:39

#	Program:	/corina/corina34_cracker 3.40 0067  02.08.2006

@<TRIPOS>MOLECULE
ASD03331457
  50   52    0    0    0
SMALL
NO_CHARGES


@<TRIPOS>ATOM
   1 N1             0.0176     1.3364    -0.2797 N.pl3   
   2 C2             0.0245    -0.0100    -0.1876 C.2     
   3 C3             1.2986    -0.4127     0.1549 C.2     
   4 C4             2.0873     0.7620     0.2712 C.2     
   5 C5             1.2759     1.8159    -0.0004 C.2     
   6 C6             1.7536    -1.7967     0.3612 C.2     
   7 O7             0.9728    -2.7190     0.2306 O.2     
   8 O8             3.0363    -2.0418     0.6951 O.3     
   9 C9            -1.1564    -0.9172    -0.4190 C.3     
  10 C10           -1.2101    -1.3180    -1.8945 C.3     
  11 C11           -2.4091    -2.2391    -2.1295 C.3     
  12 N12           -2.4605    -2.6229    -3.5424 N.am    
  13 S13           -3.4110    -3.8914    -4.0217 S.o2    
  14 O14           -3.1920    -3.9836    -5.4227 O.2     
  15 O15           -3.0437    -4.9529    -3.1514 O.2     
  16 C16           -5.1054    -3.3430    -3.6770 C.3     
  17 C17           -1.0947     2.1216    -0.6132 C.ar    
  18 C18           -1.3532     2.4334    -1.9426 C.ar    
  19 C19           -2.4508     3.2072    -2.2683 C.ar    
  20 C20           -3.2917     3.6712    -1.2717 C.ar    
  21 C21           -3.0359     3.3618     0.0524 C.ar    
  22 C22           -1.9430     2.5842     0.3831 C.ar    
  23 Cl23          -4.6695     4.6436    -1.6837 Cl      
  24 Cl24          -0.2982     1.8519    -3.1926 Cl      
  25 C25            1.6775     3.2392     0.0027 C.ar    
  26 C26            3.0293     3.5857    -0.0091 C.ar    
  27 C27            3.3978     4.9150    -0.0062 C.ar    
  28 C28            2.4295     5.9047     0.0085 C.ar    
  29 C29            1.0868     5.5670     0.0208 C.ar    
  30 C30            0.7061     4.2411     0.0117 C.ar    
  31 Cl31           2.9009     7.5754     0.0122 Cl      
  32 H32            3.1354     0.8085     0.5279 H       
  33 H33            3.2883    -2.9670     0.8201 H       
  34 H34           -1.0542    -1.8108     0.1968 H       
  35 H35           -2.0744    -0.3942    -0.1509 H       
  36 H36           -1.3123    -0.4244    -2.5103 H       
  37 H37           -0.2922    -1.8410    -2.1626 H       
  38 H38           -2.3069    -3.1327    -1.5137 H       
  39 H39           -3.3270    -1.7161    -1.8614 H       
  40 H40           -1.9379    -2.1340    -4.1971 H       
  41 H41           -5.3173    -2.4379    -4.2463 H       
  42 H42           -5.8066    -4.1261    -3.9654 H       
  43 H43           -5.2106    -3.1353    -2.6121 H       
  44 H44           -2.6524     3.4503    -3.3011 H       
  45 H45           -3.6936     3.7255     0.8280 H       
  46 H46           -1.7467     2.3395     1.4165 H       
  47 H47            3.7854     2.8146    -0.0203 H       
  48 H48            4.4437     5.1843    -0.0150 H       
  49 H49            0.3359     6.3432     0.0326 H       
  50 H50           -0.3416     3.9789     0.0163 H       
@<TRIPOS>BOND
   1    1    2 1
   2    1    5 1
   3    1   17 1
   4    2    3 2
   5    2    9 1
   6    3    4 1
   7    3    6 1
   8    4    5 2
   9    4   32 1
  10    5   25 1
  11    6    7 2
  12    6    8 1
  13    8   33 1
  14    9   10 1
  15    9   34 1
  16    9   35 1
  17   10   11 1
  18   10   36 1
  19   10   37 1
  20   11   12 1
  21   11   38 1
  22   11   39 1
  23   12   13 am
  24   12   40 1
  25   13   14 2
  26   13   15 2
  27   13   16 1
  28   16   41 1
  29   16   42 1
  30   16   43 1
  31   17   18 ar
  32   17   22 ar
  33   18   19 ar
  34   18   24 1
  35   19   20 ar
  36   19   44 1
  37   20   21 ar
  38   20   23 1
  39   21   22 ar
  40   21   45 1
  41   22   46 1
  42   25   26 ar
  43   25   30 ar
  44   26   27 ar
  45   26   47 1
  46   27   28 ar
  47   27   48 1
  48   28   29 ar
  49   28   31 1
  50   29   30 ar
  51   29   49 1
  52   30   50 1

#	End of record

