#	Name: ASD01917873
#	Creating user name:	WinNT
#	Creation time:	15. 06. 2019 20:10

#	Modifying user name:	WinNT
#	Modification time:	15. 06. 2019 20:10

#	Program:	/corina/corina34_cracker 3.40 0067  02.08.2006

@<TRIPOS>MOLECULE
ASD01917873
  40   43    0    0    0
SMALL
NO_CHARGES


@<TRIPOS>ATOM
   1 N1             4.8255    -0.4041    -2.1614 N.ar    
   2 C2             5.2915     0.2962    -3.1769 C.ar    
   3 C3             5.1780     1.6760    -3.1997 C.ar    
   4 C4             4.5640     2.3219    -2.1359 C.ar    
   5 C5             4.0843     1.5504    -1.0827 C.ar    
   6 C6             4.2362     0.1718    -1.1327 C.ar    
   7 F7             5.6595     2.3846    -4.2443 F       
   8 O8             3.4762     2.1384    -0.0192 O.3     
   9 C9             3.4556     3.4975     0.0336 C.2     
  10 N10            2.2034     5.5107    -0.0268 N.pl3   
  11 C11            2.2730     4.1510    -0.0741 C.2     
  12 C12            4.6574     4.1992     0.2042 C.2     
  13 C13            4.6331     5.5869     0.2577 C.2     
  14 C14            3.3407     6.2634     0.1324 C.2     
  15 C15            5.8745     6.3576     0.4363 C.2     
  16 N16            5.8308     7.7037     0.4858 N.am    
  17 O17            6.9398     5.7794     0.5391 O.2     
  18 C18            1.1780     6.4035    -0.1062 C.2     
  19 N19            1.6925     7.6015    -0.0088 N.2     
  20 N20            2.9689     7.5280     0.1394 N.2     
  21 C21            7.0020     8.4308     0.6543 C.2     
  22 S22            8.5628     7.7508     0.8112 S.3     
  23 C23            9.2612     9.3614     0.9588 C.2     
  24 C24            8.2702    10.2512     0.8777 C.2     
  25 N25            7.0717     9.7242     0.7099 N.2     
  26 C26            8.5011    11.7378     0.9658 C.3     
  27 C27           -0.2811     6.0717    -0.2849 C.3     
  28 H28            5.7682    -0.2131    -4.0014 H       
  29 H29            4.4615     3.3970    -2.1259 H       
  30 H30            3.8670    -0.4359    -0.3198 H       
  31 H31            1.3648     3.5804    -0.2006 H       
  32 H32            5.5924     3.6661     0.2934 H       
  33 H33            4.9814     8.1648     0.4038 H       
  34 H34           10.3086     9.5888     1.0920 H       
  35 H35            8.6777    12.1379    -0.0326 H       
  36 H36            7.6232    12.2168     1.3992 H       
  37 H37            9.3696    11.9339     1.5947 H       
  38 H38           -0.7483     5.9498     0.6923 H       
  39 H39           -0.7740     6.8800    -0.8250 H       
  40 H40           -0.3763     5.1452    -0.8512 H       
@<TRIPOS>BOND
   1    1    2 ar
   2    1    6 ar
   3    2    3 ar
   4    2   28 1
   5    3    4 ar
   6    3    7 1
   7    4    5 ar
   8    4   29 1
   9    5    6 ar
  10    5    8 1
  11    6   30 1
  12    8    9 1
  13    9   12 1
  14    9   11 2
  15   10   11 1
  16   10   18 1
  17   10   14 1
  18   11   31 1
  19   12   13 2
  20   12   32 1
  21   13   14 1
  22   13   15 1
  23   14   20 2
  24   15   16 am
  25   15   17 2
  26   16   21 1
  27   16   33 1
  28   18   19 2
  29   18   27 1
  30   19   20 1
  31   21   22 1
  32   21   25 2
  33   22   23 1
  34   23   24 2
  35   23   34 1
  36   24   25 1
  37   24   26 1
  38   26   35 1
  39   26   36 1
  40   26   37 1
  41   27   38 1
  42   27   39 1
  43   27   40 1

#	End of record

