#	Name: ASD01912593
#	Creating user name:	WinNT
#	Creation time:	15. 06. 2019 20:00

#	Modifying user name:	WinNT
#	Modification time:	15. 06. 2019 20:00

#	Program:	/corina/corina34_cracker 3.40 0067  02.08.2006

@<TRIPOS>MOLECULE
ASD01912593
  53   56    0    0    0
SMALL
NO_CHARGES


@<TRIPOS>ATOM
   1 C1            -0.0187     1.5258     0.0104 C.3     
   2 C2             0.0021    -0.0041     0.0020 C.3     
   3 C3             1.3951     2.0474    -0.0003 C.2     
   4 N4             2.1174     2.4057     1.0830 N.pl3   
   5 C5             2.1649     2.2333    -1.0947 C.2     
   6 C6             3.4107     2.7314    -0.6667 C.2     
   7 N7             3.3773     2.8335     0.6451 N.2     
   8 C8             4.5601     3.0764    -1.5404 C.ar    
   9 C9             4.4264     3.0143    -2.9270 C.ar    
  10 C10            5.7698     3.4673    -0.9773 C.ar    
  11 C11            6.8453     3.7899    -1.8045 C.ar    
  12 C12            6.7004     3.7182    -3.1918 C.ar    
  13 C13            5.4941     3.3347    -3.7427 C.ar    
  14 C14            1.6622     2.3560     2.4746 C.3     
  15 C15            1.9961     1.0101     3.0646 C.2     
  16 N16            1.6693     0.7349     4.3429 N.am    
  17 O17            2.5588     0.1746     2.3892 O.2     
  18 C18            1.9858    -0.5722     4.9383 C.3     
  19 C19            2.7188    -0.3387     6.2636 C.3     
  20 N20            1.9171     0.5528     7.1124 N.3     
  21 C21            1.7589     1.8764     6.4952 C.3     
  22 C22            0.9920     1.7358     5.1812 C.3     
  23 C23            2.4661     0.6584     8.3785 C.ar    
  24 N24            1.8706     1.4255     9.2798 N.ar    
  25 C25            2.3693     1.5482    10.4988 C.ar    
  26 C26            3.5282     0.8626    10.8274 C.ar    
  27 C27            4.1253     0.0690     9.8607 C.ar    
  28 N28            3.5718    -0.0143     8.6621 N.ar    
  29 C29            8.0947     4.1940    -1.2331 C.1     
  30 N30            9.0858     4.5145    -0.7798 N.1     
  31 H31           -0.5459     1.8868    -0.8726 H       
  32 H32           -0.5289     1.8773     0.9072 H       
  33 H33            0.5293    -0.3651     0.8851 H       
  34 H34           -1.0205    -0.3814     0.0098 H       
  35 H35            0.5123    -0.3556    -0.8948 H       
  36 H36            1.8763     2.0348    -2.1163 H       
  37 H37            3.4855     2.7146    -3.3644 H       
  38 H38            5.8760     3.5213     0.0961 H       
  39 H39            7.5316     3.9678    -3.8345 H       
  40 H40            5.3860     3.2805    -4.8159 H       
  41 H41            2.1605     3.1378     3.0480 H       
  42 H42            0.5839     2.5109     2.5099 H       
  43 H43            1.0638    -1.1238     5.1221 H       
  44 H44            2.6254    -1.1379     4.2609 H       
  45 H45            2.8636    -1.2919     6.7720 H       
  46 H46            3.6878     0.1202     6.0674 H       
  47 H47            1.2075     2.5296     7.1715 H       
  48 H48            2.7413     2.3044     6.2957 H       
  49 H49            0.9720     2.6954     4.6645 H       
  50 H50           -0.0264     1.4052     5.3852 H       
  51 H51            1.8795     2.1754    11.2291 H       
  52 H52            3.9568     0.9453    11.8153 H       
  53 H53            5.0293    -0.4780    10.0844 H       
@<TRIPOS>BOND
   1    1    2 1
   2    1    3 1
   3    1   31 1
   4    1   32 1
   5    2   33 1
   6    2   34 1
   7    2   35 1
   8    3    4 1
   9    3    5 2
  10    4   14 1
  11    4    7 1
  12    5    6 1
  13    5   36 1
  14    6    7 2
  15    6    8 1
  16    8    9 ar
  17    8   10 ar
  18    9   13 ar
  19    9   37 1
  20   10   11 ar
  21   10   38 1
  22   11   12 ar
  23   11   29 1
  24   12   13 ar
  25   12   39 1
  26   13   40 1
  27   14   15 1
  28   14   41 1
  29   14   42 1
  30   15   16 am
  31   15   17 2
  32   16   18 1
  33   16   22 1
  34   18   19 1
  35   18   43 1
  36   18   44 1
  37   19   20 1
  38   19   45 1
  39   19   46 1
  40   20   21 1
  41   20   23 1
  42   21   22 1
  43   21   47 1
  44   21   48 1
  45   22   49 1
  46   22   50 1
  47   23   24 ar
  48   23   28 ar
  49   24   25 ar
  50   25   26 ar
  51   25   51 1
  52   26   27 ar
  53   26   52 1
  54   27   28 ar
  55   27   53 1
  56   29   30 3

#	End of record

