#	Name: ASD02560178
#	Creating user name:	WinNT
#	Creation time:	15. 06. 2019 20:24

#	Modifying user name:	WinNT
#	Modification time:	15. 06. 2019 20:24

#	Program:	/corina/corina34_cracker 3.40 0067  02.08.2006

@<TRIPOS>MOLECULE
ASD02560178
  61   64    0    0    0
SMALL
NO_CHARGES


@<TRIPOS>ATOM
   1 Br1            0.9331     3.1451    -1.6012 Br      
   2 N2            -0.5254     1.8011     0.4235 N.2     
   3 N3            -0.7273     0.6055     0.1894 N.2     
   4 C4             0.8587     2.1778     0.1088 C.3     
   5 N5             1.5877     0.8884     0.0056 N.3     
   6 C6             0.4832    -0.0466    -0.3267 C.3     
   7 S7             0.7392    -1.6438     0.4943 S.3     
   8 C8             0.7573    -1.2004     2.2531 C.3     
   9 C9             0.9648    -2.4417     3.0820 C.2     
  10 O10            1.0883    -3.5195     2.5397 O.2     
  11 N11            1.0131    -2.3542     4.4261 N.am    
  12 C12            2.5321     0.9293    -1.0178 C.ar    
  13 C13            1.0865    -3.5172     5.2007 C.ar    
  14 C14            1.5330    -3.4514     6.5143 C.ar    
  15 C15            1.6043    -4.6009     7.2761 C.ar    
  16 C16            1.2317    -5.8168     6.7324 C.ar    
  17 C17            0.7872    -5.8857     5.4251 C.ar    
  18 C18            0.7077    -4.7385     4.6597 C.ar    
  19 S19            1.3242    -7.2813     7.7079 S.o2    
  20 O20            1.4299    -8.3653     6.7952 O.2     
  21 O21            2.2825    -7.0258     8.7255 O.2     
  22 C22            3.5755     1.8793    -0.9864 C.ar    
  23 C23            2.4593     0.0384    -2.0677 C.ar    
  24 C24            3.3976     0.0710    -3.0947 C.ar    
  25 C25            4.4114     0.9802    -3.0923 C.ar    
  26 C26            4.5245     1.9023    -2.0381 C.ar    
  27 C27            3.6901     2.8009     0.0659 C.ar    
  28 N28           -0.1347    -7.4541     8.4722 N.am    
  29 C29            5.4147     0.9936    -4.2166 C.3     
  30 C30            5.5603     2.8523    -2.0097 C.ar    
  31 C31            5.6400     3.7312    -0.9736 C.ar    
  32 C32            4.7094     3.7037     0.0632 C.ar    
  33 C33            6.6407     0.1706    -3.8160 C.3     
  34 C34            7.6593     0.1843    -4.9576 C.3     
  35 C35            1.9397    -2.1270     7.1073 C.3     
  36 H36            1.2775     2.7876     0.9093 H       
  37 H37            0.4112    -0.1808    -1.4060 H       
  38 H38            1.5685    -0.4974     2.4422 H       
  39 H39           -0.1932    -0.7391     2.5213 H       
  40 H40            0.9970    -1.4850     4.8564 H       
  41 H41            1.9518    -4.5505     8.2974 H       
  42 H42            0.4973    -6.8367     5.0033 H       
  43 H43            0.3601    -4.7929     3.6386 H       
  44 H44            1.6653    -0.6932    -2.0930 H       
  45 H45            3.3207    -0.6366    -3.9069 H       
  46 H46            2.9732     2.7943     0.8736 H       
  47 H47           -0.8375    -6.8010     8.3293 H       
  48 H48           -0.2865    -8.2085     9.0627 H       
  49 H49            4.9642     0.5627    -5.1108 H       
  50 H50            5.7174     2.0206    -4.4212 H       
  51 H51            6.2894     2.8843    -2.8059 H       
  52 H52            6.4368     4.4600    -0.9542 H       
  53 H53            4.7946     4.4125     0.8737 H       
  54 H54            7.0912     0.6016    -2.9219 H       
  55 H55            6.3379    -0.8563    -3.6115 H       
  56 H56            7.2088    -0.2466    -5.8517 H       
  57 H57            7.9621     1.2112    -5.1621 H       
  58 H58            8.5327    -0.4020    -4.6722 H       
  59 H59            1.0733    -1.6549     7.5705 H       
  60 H60            2.7116    -2.2877     7.8599 H       
  61 H61            2.3284    -1.4806     6.3204 H       
@<TRIPOS>BOND
   1    1    4 1
   2    2    3 2
   3    2    4 1
   4    3    6 1
   5    4    5 1
   6    4   36 1
   7    5    6 1
   8    5   12 1
   9    6    7 1
  10    6   37 1
  11    7    8 1
  12    8    9 1
  13    8   38 1
  14    8   39 1
  15    9   10 2
  16    9   11 am
  17   11   13 1
  18   11   40 1
  19   12   22 ar
  20   12   23 ar
  21   13   14 ar
  22   13   18 ar
  23   14   15 ar
  24   14   35 1
  25   15   16 ar
  26   15   41 1
  27   16   17 ar
  28   16   19 1
  29   17   18 ar
  30   17   42 1
  31   18   43 1
  32   19   20 2
  33   19   21 2
  34   19   28 am
  35   22   26 ar
  36   22   27 ar
  37   23   24 ar
  38   23   44 1
  39   24   25 ar
  40   24   45 1
  41   25   26 ar
  42   25   29 1
  43   26   30 ar
  44   27   32 ar
  45   27   46 1
  46   28   47 1
  47   28   48 1
  48   29   33 1
  49   29   49 1
  50   29   50 1
  51   30   31 ar
  52   30   51 1
  53   31   32 ar
  54   31   52 1
  55   32   53 1
  56   33   34 1
  57   33   54 1
  58   33   55 1
  59   34   56 1
  60   34   57 1
  61   34   58 1
  62   35   59 1
  63   35   60 1
  64   35   61 1

#	End of record

