#	Name: ASD01208762
#	Creating user name:	WinNT
#	Creation time:	15. 06. 2019 19:10

#	Modifying user name:	WinNT
#	Modification time:	15. 06. 2019 19:10

#	Program:	/corina/corina34_cracker 3.40 0067  02.08.2006

@<TRIPOS>MOLECULE
ASD01208762
  33   34    0    0    0
SMALL
NO_CHARGES


@<TRIPOS>ATOM
   1 C1            -0.0180     1.4733     0.0101 C.2     
   2 C2             0.0021    -0.0041     0.0020 C.ar    
   3 C3            -1.1959    -0.7204     0.0096 C.ar    
   4 C4            -1.1724    -2.1050     0.0020 C.ar    
   5 C5             0.0397    -2.7803    -0.0132 C.ar    
   6 C6             1.2327    -2.0725    -0.0207 C.ar    
   7 C7             1.2186    -0.6873    -0.0190 C.ar    
   8 O8             1.0256     2.0949     0.0035 O.2     
   9 O9            -1.1936     2.1309     0.0193 O.3     
  10 O10            2.4170    -2.7390    -0.0356 O.3     
  11 C11            2.3579    -4.1667    -0.0426 C.3     
  12 C12            3.7567    -4.7273    -0.0590 C.ar    
  13 C13            4.4096    -4.9909     1.1306 C.ar    
  14 C14            5.6927    -5.5051     1.1157 C.ar    
  15 C15            6.3226    -5.7562    -0.0889 C.ar    
  16 C16            5.6694    -5.4935    -1.2785 C.ar    
  17 C17            4.3847    -4.9834    -1.2635 C.ar    
  18 O18           -2.3382    -2.8035     0.0098 O.3     
  19 C19           -1.1373     3.5818     0.0269 C.3     
  20 H20           -2.1398    -0.1957     0.0218 H       
  21 H21            0.0544    -3.8601    -0.0187 H       
  22 H22            2.1479    -0.1370    -0.0295 H       
  23 H23            1.8380    -4.5133     0.8505 H       
  24 H24            1.8210    -4.5038    -0.9294 H       
  25 H25            3.9174    -4.7947     2.0717 H       
  26 H26            6.2030    -5.7103     2.0451 H       
  27 H27            7.3253    -6.1572    -0.1006 H       
  28 H28            6.1617    -5.6894    -2.2196 H       
  29 H29            3.8729    -4.7816    -2.1929 H       
  30 H30           -2.6843    -3.0009    -0.8712 H       
  31 H31           -0.6055     3.9201     0.9162 H       
  32 H32           -0.6140     3.9298    -0.8637 H       
  33 H33           -2.1501     3.9847     0.0339 H       
@<TRIPOS>BOND
   1    1    2 1
   2    1    8 2
   3    1    9 1
   4    2    3 ar
   5    2    7 ar
   6    3    4 ar
   7    3   20 1
   8    4    5 ar
   9    4   18 1
  10    5    6 ar
  11    5   21 1
  12    6    7 ar
  13    6   10 1
  14    7   22 1
  15    9   19 1
  16   10   11 1
  17   11   12 1
  18   11   23 1
  19   11   24 1
  20   12   13 ar
  21   12   17 ar
  22   13   14 ar
  23   13   25 1
  24   14   15 ar
  25   14   26 1
  26   15   16 ar
  27   15   27 1
  28   16   17 ar
  29   16   28 1
  30   17   29 1
  31   18   30 1
  32   19   31 1
  33   19   32 1
  34   19   33 1

#	End of record

