#	Name: ASD01881732
#	Creating user name:	WinNT
#	Creation time:	15. 06. 2019 19:43

#	Modifying user name:	WinNT
#	Modification time:	15. 06. 2019 19:43

#	Program:	/corina/corina34_cracker 3.40 0067  02.08.2006

@<TRIPOS>MOLECULE
ASD01881732
  43   46    0    0    0
SMALL
NO_CHARGES


@<TRIPOS>ATOM
   1 C1             0.0015     1.4750     0.0074 C.2     
   2 C2             0.0060    -0.0148     0.0029 C.3     
   3 C3             0.0343    -0.5401     1.4609 C.3     
   4 C4             1.3424    -0.2544     2.0724 C.3     
   5 C5             1.6735     1.2246     2.2122 C.3     
   6 C6             2.3391     1.7074     0.9457 C.3     
   7 C7             1.2767     2.2986    -0.0001 C.3     
   8 O8            -1.0599     2.0509     0.0121 O.2     
   9 O9            -1.1711    -0.4921    -0.6519 O.3     
  10 N10           -1.2435    -1.0036    -6.1051 N.pl3   
  11 N11           -2.5068    -1.6078    -6.1868 N.2     
  12 N12           -2.9972    -1.7363    -5.0046 N.2     
  13 C13           -2.1388    -1.2503    -4.0859 C.ar    
  14 C14           -1.0061    -0.7746    -4.7689 C.ar    
  15 C15           -2.1876    -1.1504    -2.6886 C.ar    
  16 C16           -1.1268    -0.5900    -2.0075 C.ar    
  17 C17           -0.0110    -0.1233    -2.6983 C.ar    
  18 C18            0.0500    -0.2127    -4.0604 C.ar    
  19 C19           -0.3501    -0.6848    -7.2215 C.3     
  20 C20           -0.6526     0.7261    -7.7300 C.3     
  21 C21            0.2558     1.2931    -8.8228 C.3     
  22 C22           -1.1732     0.8645    -9.1621 C.3     
  23 Br23          -3.6984    -1.7812    -1.7424 Br      
  24 H24            0.8872    -0.3734    -0.5291 H       
  25 H25           -0.7497    -0.0495     2.0376 H       
  26 H26           -0.1379    -1.6165     1.4611 H       
  27 H27            1.3654    -0.7074     3.0635 H       
  28 H28            2.1162    -0.7245     1.4655 H       
  29 H29            0.7560     1.7889     2.3790 H       
  30 H30            2.3486     1.3684     3.0558 H       
  31 H31            3.0741     2.4740     1.1911 H       
  32 H32            2.8369     0.8708     0.4553 H       
  33 H33            1.6774     2.3249    -1.0134 H       
  34 H34            1.0452     3.3157     0.3162 H       
  35 H35            0.8124     0.3136    -2.1528 H       
  36 H36            0.9195     0.1523    -4.5869 H       
  37 H37            0.6852    -0.7353    -6.8843 H       
  38 H38           -0.5051    -1.4024    -8.0272 H       
  39 H39           -1.0379     1.4219    -6.9847 H       
  40 H40            0.4678     2.3620    -8.7967 H       
  41 H41            1.0689     0.6609    -9.1795 H       
  42 H42           -1.3002    -0.0497    -9.7419 H       
  43 H43           -1.9013     1.6513    -9.3591 H       
@<TRIPOS>BOND
   1    1    2 1
   2    1    7 1
   3    1    8 2
   4    2    3 1
   5    2    9 1
   6    2   24 1
   7    3    4 1
   8    3   25 1
   9    3   26 1
  10    4    5 1
  11    4   27 1
  12    4   28 1
  13    5    6 1
  14    5   29 1
  15    5   30 1
  16    6    7 1
  17    6   31 1
  18    6   32 1
  19    7   33 1
  20    7   34 1
  21    9   16 1
  22   10   11 1
  23   10   14 1
  24   10   19 1
  25   11   12 2
  26   12   13 1
  27   13   14 ar
  28   13   15 ar
  29   14   18 ar
  30   15   16 ar
  31   15   23 1
  32   16   17 ar
  33   17   18 ar
  34   17   35 1
  35   18   36 1
  36   19   20 1
  37   19   37 1
  38   19   38 1
  39   20   21 1
  40   20   22 1
  41   20   39 1
  42   21   22 1
  43   21   40 1
  44   21   41 1
  45   22   42 1
  46   22   43 1

#	End of record

