#	Name: ASD01883292
#	Creating user name:	WinNT
#	Creation time:	15. 06. 2019 19:46

#	Modifying user name:	WinNT
#	Modification time:	15. 06. 2019 19:46

#	Program:	/corina/corina34_cracker 3.40 0067  02.08.2006

@<TRIPOS>MOLECULE
ASD01883292
  49   51    0    0    0
SMALL
NO_CHARGES


@<TRIPOS>ATOM
   1 N1             0.4351    -1.2456     2.8815 N.am    
   2 C2             0.2614    -2.2295     1.9798 C.2     
   3 C3            -1.0364    -2.5158     1.4873 C.2     
   4 C4            -2.1197    -1.7557     1.9592 C.2     
   5 C5            -1.8732    -0.7399     2.9025 C.2     
   6 C6            -0.6130    -0.5154     3.3405 C.2     
   7 O7             1.2192    -2.8735     1.5868 O.2     
   8 C8            -1.2394    -3.5588     0.5273 C.1     
   9 N9            -1.4004    -4.3863    -0.2342 N.1     
  10 C10            1.7821    -0.9608     3.3824 C.3     
  11 C11            2.4491     0.0845     2.4861 C.3     
  12 C12            3.8558     0.3818     3.0092 C.3     
  13 C13            4.7228    -0.8725     2.8825 C.3     
  14 C14            4.4758     1.5152     2.1895 C.3     
  15 C15           -3.4926    -2.0172     1.4741 C.ar    
  16 C16           -4.4698    -2.4848     2.3542 C.ar    
  17 C17           -5.7481    -2.7267     1.8954 C.ar    
  18 C18           -6.0623    -2.5073     0.5658 C.ar    
  19 C19           -5.0982    -2.0439    -0.3118 C.ar    
  20 C20           -3.8177    -1.7920     0.1355 C.ar    
  21 C21           -7.4605    -2.7747     0.0714 C.3     
  22 C22           -8.5657    -2.1279     0.8659 C.2     
  23 N23           -8.9122    -0.8487     0.6206 N.am    
  24 O24           -9.1433    -2.7583     1.7260 O.2     
  25 C25           -7.6620    -2.9093    -1.4393 C.3     
  26 C26           -7.7422    -4.1474    -0.5428 C.3     
  27 H27           -2.6904    -0.1428     3.2794 H       
  28 H28           -0.4362     0.2666     4.0642 H       
  29 H29            1.7176    -0.5781     4.4010 H       
  30 H30            2.3735    -1.8764     3.3750 H       
  31 H31            2.5136    -0.2982     1.4675 H       
  32 H32            1.8576     1.0000     2.4935 H       
  33 H33            3.7987     0.6798     4.0561 H       
  34 H34            4.7799    -1.1704     1.8356 H       
  35 H35            5.7249    -0.6606     3.2551 H       
  36 H36            4.2811    -1.6799     3.4665 H       
  37 H37            3.8581     2.4088     2.2797 H       
  38 H38            5.4779     1.7271     2.5621 H       
  39 H39            4.5329     1.2173     1.1425 H       
  40 H40           -4.2257    -2.6571     3.3920 H       
  41 H41           -6.5052    -3.0885     2.5753 H       
  42 H42           -5.3499    -1.8746    -1.3484 H       
  43 H43           -3.0662    -1.4300    -0.5505 H       
  44 H44           -8.4102    -0.3252    -0.0234 H       
  45 H45           -9.6637    -0.4516     1.0881 H       
  46 H46           -8.5941    -2.5303    -1.8585 H       
  47 H47           -6.7832    -2.8043    -2.0756 H       
  48 H48           -6.9162    -4.8570    -0.5896 H       
  49 H49           -8.7270    -4.5826    -0.3726 H       
@<TRIPOS>BOND
   1    1    2 am
   2    1   10 1
   3    1    6 1
   4    2    3 1
   5    2    7 2
   6    3    4 2
   7    3    8 1
   8    4    5 1
   9    4   15 1
  10    5    6 2
  11    5   27 1
  12    6   28 1
  13    8    9 3
  14   10   11 1
  15   10   29 1
  16   10   30 1
  17   11   12 1
  18   11   31 1
  19   11   32 1
  20   12   13 1
  21   12   14 1
  22   12   33 1
  23   13   34 1
  24   13   35 1
  25   13   36 1
  26   14   37 1
  27   14   38 1
  28   14   39 1
  29   15   16 ar
  30   15   20 ar
  31   16   17 ar
  32   16   40 1
  33   17   18 ar
  34   17   41 1
  35   18   19 ar
  36   18   21 1
  37   19   20 ar
  38   19   42 1
  39   20   43 1
  40   21   22 1
  41   21   25 1
  42   21   26 1
  43   22   23 am
  44   22   24 2
  45   23   44 1
  46   23   45 1
  47   25   26 1
  48   25   46 1
  49   25   47 1
  50   26   48 1
  51   26   49 1

#	End of record

