#	Name: ASD01911757
#	Creating user name:	WinNT
#	Creation time:	15. 06. 2019 19:58

#	Modifying user name:	WinNT
#	Modification time:	15. 06. 2019 19:58

#	Program:	/corina/corina34_cracker 3.40 0067  02.08.2006

@<TRIPOS>MOLECULE
ASD01911757
  67   71    0    0    0
SMALL
NO_CHARGES


@<TRIPOS>ATOM
   1 C1            -0.0166     1.3761     0.0096 C.ar    
   2 C2             0.0021    -0.0041     0.0020 C.ar    
   3 C3             1.2184    -0.6842    -0.0133 C.ar    
   4 C4             2.4121     0.0323    -0.0209 C.ar    
   5 C5             2.3843     1.4175    -0.0132 C.ar    
   6 C6             1.1689     2.0873     0.0021 C.ar    
   7 C7             1.2412    -2.1683    -0.0210 C.2     
   8 N8             2.3141    -2.9266     0.0579 N.2     
   9 C9             0.1181    -3.0137    -0.1079 C.2     
  10 C10            0.5583    -4.2906    -0.0835 C.2     
  11 N11            1.9046    -4.2656     0.0179 N.pl3   
  12 C12           -0.3022    -5.5259    -0.1529 C.3     
  13 C13           -1.6196    -5.2717     0.5824 C.3     
  14 C14           -2.4932    -6.5258     0.5120 C.3     
  15 C15           -2.7831    -6.8639    -0.9518 C.3     
  16 C16           -1.4656    -7.1181    -1.6871 C.3     
  17 C17           -0.5920    -5.8640    -1.6166 C.3     
  18 C18            2.7843    -5.4356     0.0760 C.3     
  19 C19            3.1924    -5.8271    -1.3209 C.2     
  20 N20            4.0066    -6.8837    -1.5139 N.am    
  21 O21            2.7883    -5.1913    -2.2713 O.2     
  22 C22            4.4171    -7.2828    -2.8687 C.3     
  23 C23            4.5129    -7.6645    -0.3750 C.3     
  24 C24            6.0352    -7.7832    -0.5046 C.3     
  25 N25            6.3700    -8.3262    -1.8278 N.3     
  26 C26            5.9433    -7.4172    -2.8950 C.3     
  27 C27            7.7292    -8.6010    -1.9242 C.ar    
  28 N28            8.5218    -8.3626    -0.8905 N.ar    
  29 C29            8.2437    -9.1292    -3.1036 C.ar    
  30 C30            9.5982    -9.3979    -3.1859 C.ar    
  31 C31           10.3955    -9.1283    -2.0816 C.ar    
  32 C32            9.8170    -8.6092    -0.9405 C.ar    
  33 O33            3.5474     2.1204    -0.0206 O.3     
  34 C34            3.4442     3.5456    -0.0119 C.3     
  35 H35           -0.9600     1.9019     0.0169 H       
  36 H36           -0.9257    -0.5568     0.0083 H       
  37 H37            3.3572    -0.4903    -0.0324 H       
  38 H38            1.1491     3.1671     0.0081 H       
  39 H39           -0.9119    -2.6974    -0.1810 H       
  40 H40            0.2206    -6.3596     0.3160 H       
  41 H41           -1.4131    -5.0308     1.6252 H       
  42 H42           -2.1423    -4.4380     0.1136 H       
  43 H43           -1.9705    -7.3595     0.9808 H       
  44 H44           -3.4318    -6.3447     1.0358 H       
  45 H45           -3.4054    -7.7573    -1.0020 H       
  46 H46           -3.3058    -6.0301    -1.4206 H       
  47 H47           -0.9429    -7.9518    -1.2182 H       
  48 H48           -1.6721    -7.3589    -2.7299 H       
  49 H49           -1.1148    -5.0302    -2.0854 H       
  50 H50            0.3465    -6.0451    -2.1404 H       
  51 H51            3.6725    -5.1938     0.6597 H       
  52 H52            2.2554    -6.2649     0.5458 H       
  53 H53            3.9608    -8.2395    -3.1226 H       
  54 H54            4.1040    -6.5230    -3.5849 H       
  55 H55            4.2632    -7.1571     0.5568 H       
  56 H56            4.0660    -8.6586    -0.3850 H       
  57 H57            6.4879    -6.7982    -0.3905 H       
  58 H58            6.4152    -8.4503     0.2691 H       
  59 H59            6.2523    -7.8189    -3.8601 H       
  60 H60            6.4006    -6.4393    -2.7444 H       
  61 H61            7.5944    -9.3272    -3.9437 H       
  62 H62           10.0259    -9.8086    -4.0886 H       
  63 H63           11.4566    -9.3270    -2.1133 H       
  64 H64           10.4335    -8.3979    -0.0792 H       
  65 H65            2.9140     3.8661     0.8849 H       
  66 H66            4.4428     3.9823    -0.0192 H       
  67 H67            2.8969     3.8756    -0.8949 H       
@<TRIPOS>BOND
   1    1    2 ar
   2    1    6 ar
   3    1   35 1
   4    2    3 ar
   5    2   36 1
   6    3    4 ar
   7    3    7 1
   8    4    5 ar
   9    4   37 1
  10    5    6 ar
  11    5   33 1
  12    6   38 1
  13    7    8 2
  14    7    9 1
  15    8   11 1
  16    9   10 2
  17    9   39 1
  18   10   11 1
  19   10   12 1
  20   11   18 1
  21   12   13 1
  22   12   17 1
  23   12   40 1
  24   13   14 1
  25   13   41 1
  26   13   42 1
  27   14   15 1
  28   14   43 1
  29   14   44 1
  30   15   16 1
  31   15   45 1
  32   15   46 1
  33   16   17 1
  34   16   47 1
  35   16   48 1
  36   17   49 1
  37   17   50 1
  38   18   19 1
  39   18   51 1
  40   18   52 1
  41   19   20 am
  42   19   21 2
  43   20   22 1
  44   20   23 1
  45   22   26 1
  46   22   53 1
  47   22   54 1
  48   23   24 1
  49   23   55 1
  50   23   56 1
  51   24   25 1
  52   24   57 1
  53   24   58 1
  54   25   26 1
  55   25   27 1
  56   26   59 1
  57   26   60 1
  58   27   28 ar
  59   27   29 ar
  60   28   32 ar
  61   29   30 ar
  62   29   61 1
  63   30   31 ar
  64   30   62 1
  65   31   32 ar
  66   31   63 1
  67   32   64 1
  68   33   34 1
  69   34   65 1
  70   34   66 1
  71   34   67 1

#	End of record

