#	Name: ASD04880727
#	Creating user name:	WinNT
#	Creation time:	15. 06. 2019 20:53

#	Modifying user name:	WinNT
#	Modification time:	15. 06. 2019 20:53

#	Program:	/corina/corina34_cracker 3.40 0067  02.08.2006

@<TRIPOS>MOLECULE
ASD04880727
  77   82    0    0    0
SMALL
NO_CHARGES


@<TRIPOS>ATOM
   1 C1             0.3709     0.8524    -1.2979 C.ar    
   2 C2            -0.5733     0.9607    -2.2993 C.ar    
   3 C3            -0.3746     1.8746    -3.3254 C.ar    
   4 C4             0.7713     2.6495    -3.3067 C.ar    
   5 C5             1.6804     2.4876    -2.2664 C.ar    
   6 N6             1.4548     1.6046    -1.3056 N.ar    
   7 C7             1.0314     3.6549    -4.3987 C.3     
   8 N8             2.8359     3.2596    -2.2350 N.3     
   9 C9             2.7969     4.2212    -1.1245 C.3     
  10 C10            4.0335     2.4119    -2.1521 C.3     
  11 C11            5.2837     3.2936    -2.2000 C.3     
  12 N12            5.2446     4.2552    -1.0895 N.3     
  13 C13            4.0471     5.1029    -1.1724 C.3     
  14 C14            6.4022     5.0285    -1.0581 C.ar    
  15 C15            6.3316     6.3933    -1.3097 C.ar    
  16 C16            7.4753     7.1628    -1.2796 C.ar    
  17 C17            8.7103     6.5702    -0.9954 C.ar    
  18 C18            8.7822     5.1971    -0.7417 C.ar    
  19 C19            7.6325     4.4315    -0.7679 C.ar    
  20 N20            7.7003     3.0557    -0.5087 N.am    
  21 C21            8.8436     2.3815    -0.7427 C.2     
  22 C22            8.8908     0.9211    -0.5489 C.2     
  23 O23            9.8365     2.9782    -1.1137 O.2     
  24 C24            8.2897    -1.1006    -0.0885 C.2     
  25 O25            9.5796    -1.1372    -0.4516 O.3     
  26 C26            9.9705     0.1146    -0.7395 C.2     
  27 N27            7.8649     0.1262    -0.1402 N.2     
  28 C28            7.4628    -2.2940     0.3153 C.3     
  29 C29            7.2923    -3.4155    -0.7114 C.3     
  30 C30            8.1913    -3.6255     0.5087 C.3     
  31 C31            9.9340     7.3921    -0.9640 C.2     
  32 N32           11.1232     6.8200    -0.6902 N.am    
  33 O33            9.8703     8.5862    -1.1853 O.2     
  34 C34           12.3391     7.6367    -0.6590 C.3     
  35 C35           13.5408     6.7497    -0.3274 C.3     
  36 C36           14.8107     7.6025    -0.2948 C.3     
  37 N37           15.9613     6.7532     0.0227 N.am    
  38 C38           17.6664     5.5327     1.1275 C.3     
  39 C39           16.4606     6.4597     1.3748 C.3     
  40 C40           16.7271     6.1124    -0.8710 C.2     
  41 O41           17.7173     5.3994    -0.3225 O.3     
  42 O42           16.5390     6.1731    -2.0699 O.2     
  43 Cl43           7.3828     8.8674    -1.5950 Cl      
  44 H44            0.2181     0.1459    -0.4954 H       
  45 H45           -1.4574     0.3405    -2.2849 H       
  46 H46           -1.0981     1.9781    -4.1205 H       
  47 H47            0.5248     4.5900    -4.1598 H       
  48 H48            2.1036     3.8331    -4.4806 H       
  49 H49            0.6539     3.2687    -5.3455 H       
  50 H50            1.9080     4.8455    -1.2150 H       
  51 H51            2.7682     3.6821    -0.1775 H       
  52 H52            4.0189     1.8523    -1.2168 H       
  53 H53            4.0461     1.7171    -2.9918 H       
  54 H54            6.1726     2.6693    -2.1095 H       
  55 H55            5.3124     3.8326    -3.1470 H       
  56 H56            4.0617     5.6625    -2.1077 H       
  57 H57            4.0345     5.7977    -0.3327 H       
  58 H58            5.3790     6.8522    -1.5295 H       
  59 H59            9.7341     4.7365    -0.5224 H       
  60 H60            6.9244     2.5888    -0.1610 H       
  61 H61           10.9543     0.4228    -1.0611 H       
  62 H62            6.6198    -2.0811     0.9727 H       
  63 H63            6.3373    -3.9406    -0.7293 H       
  64 H64            7.7783    -3.2901    -1.6790 H       
  65 H65            9.2687    -3.6383     0.3438 H       
  66 H66            7.8277    -4.2888     1.2935 H       
  67 H67           11.1740     5.8676    -0.5137 H       
  68 H68           12.4890     8.1024    -1.6330 H       
  69 H69           12.2376     8.4104     0.1020 H       
  70 H70           13.3909     6.2839     0.6466 H       
  71 H71           13.6423     5.9759    -1.0884 H       
  72 H72           14.9606     8.0683    -1.2688 H       
  73 H73           14.7092     8.3763     0.4662 H       
  74 H74           18.5822     5.9883     1.5040 H       
  75 H75           17.5028     4.5606     1.5927 H       
  76 H76           16.7778     7.3757     1.8731 H       
  77 H77           15.6981     5.9477     1.9618 H       
@<TRIPOS>BOND
   1    1    2 ar
   2    1    6 ar
   3    1   44 1
   4    2    3 ar
   5    2   45 1
   6    3    4 ar
   7    3   46 1
   8    4    5 ar
   9    4    7 1
  10    5    6 ar
  11    5    8 1
  12    7   47 1
  13    7   48 1
  14    7   49 1
  15    8   10 1
  16    8    9 1
  17    9   13 1
  18    9   50 1
  19    9   51 1
  20   10   11 1
  21   10   52 1
  22   10   53 1
  23   11   12 1
  24   11   54 1
  25   11   55 1
  26   12   13 1
  27   12   14 1
  28   13   56 1
  29   13   57 1
  30   14   15 ar
  31   14   19 ar
  32   15   16 ar
  33   15   58 1
  34   16   17 ar
  35   16   43 1
  36   17   18 ar
  37   17   31 1
  38   18   19 ar
  39   18   59 1
  40   19   20 1
  41   20   21 am
  42   20   60 1
  43   21   22 1
  44   21   23 2
  45   22   27 1
  46   22   26 2
  47   24   25 1
  48   24   27 2
  49   24   28 1
  50   25   26 1
  51   26   61 1
  52   28   29 1
  53   28   30 1
  54   28   62 1
  55   29   30 1
  56   29   63 1
  57   29   64 1
  58   30   65 1
  59   30   66 1
  60   31   32 am
  61   31   33 2
  62   32   34 1
  63   32   67 1
  64   34   35 1
  65   34   68 1
  66   34   69 1
  67   35   36 1
  68   35   70 1
  69   35   71 1
  70   36   37 1
  71   36   72 1
  72   36   73 1
  73   37   40 am
  74   37   39 1
  75   38   39 1
  76   38   41 1
  77   38   74 1
  78   38   75 1
  79   39   76 1
  80   39   77 1
  81   40   41 1
  82   40   42 2

#	End of record

