#	Name: ASD05062018
#	Creating user name:	WinNT
#	Creation time:	15. 06. 2019 20:56

#	Modifying user name:	WinNT
#	Modification time:	15. 06. 2019 20:56

#	Program:	/corina/corina34_cracker 3.40 0067  02.08.2006

@<TRIPOS>MOLECULE
ASD05062018
  47   50    0    0    0
SMALL
NO_CHARGES


@<TRIPOS>ATOM
   1 C1            -2.5763     1.2654     0.4612 C.ar    
   2 C2            -1.7646     0.1551     0.2963 C.ar    
   3 C3            -2.3246    -1.1079     0.2359 C.ar    
   4 C4            -3.6937    -1.2658     0.3393 C.ar    
   5 C5            -4.5097    -0.1616     0.5039 C.ar    
   6 C6            -3.9548     1.1059     0.5710 C.ar    
   7 O7            -4.7558     2.1929     0.7329 O.3     
   8 O8            -2.0272     2.5081     0.5212 O.3     
   9 As9           -1.1565    -2.7015    -0.0009 Du      
  10 C10           -0.6075    -3.3925     1.7827 C.ar    
  11 C11           -2.1551    -4.1160    -0.9817 C.ar    
  12 C12            0.4613    -2.1895    -1.0406 C.ar    
  13 C13           -2.7257    -5.1666    -0.2878 C.ar    
  14 C14           -3.4193    -6.1493    -0.9691 C.ar    
  15 C15           -3.5427    -6.0811    -2.3442 C.ar    
  16 C16           -2.9729    -5.0300    -3.0380 C.ar    
  17 C17           -2.2830    -4.0450    -2.3563 C.ar    
  18 C18            1.5264    -1.5787    -0.4055 C.ar    
  19 C19            2.6501    -1.2230    -1.1277 C.ar    
  20 C20            2.7089    -1.4785    -2.4850 C.ar    
  21 C21            1.6441    -2.0900    -3.1199 C.ar    
  22 C22            0.5222    -2.4497    -2.3969 C.ar    
  23 C23           -1.4611    -4.2095     2.5000 C.ar    
  24 C24           -1.0798    -4.6895     3.7390 C.ar    
  25 C25            0.1554    -4.3528     4.2604 C.ar    
  26 C26            1.0094    -3.5365     3.5426 C.ar    
  27 C27            0.6298    -3.0601     2.3018 C.ar    
  28 H28           -0.6945     0.2758     0.2146 H       
  29 H29           -4.1273    -2.2538     0.2909 H       
  30 H30           -5.5793    -0.2877     0.5841 H       
  31 H31           -4.9157     2.4294     1.6568 H       
  32 H32           -1.9433     2.9430    -0.3384 H       
  33 H33           -2.6293    -5.2200     0.7866 H       
  34 H34           -3.8645    -6.9705    -0.4271 H       
  35 H35           -4.0841    -6.8492    -2.8766 H       
  36 H36           -3.0690    -4.9768    -4.1124 H       
  37 H37           -1.8378    -3.2238    -2.8983 H       
  38 H38            1.4805    -1.3792     0.6549 H       
  39 H39            3.4820    -0.7453    -0.6316 H       
  40 H40            3.5866    -1.1999    -3.0493 H       
  41 H41            1.6899    -2.2893    -4.1804 H       
  42 H42           -0.3097    -2.9275    -2.8930 H       
  43 H43           -2.4262    -4.4725     2.0927 H       
  44 H44           -1.7470    -5.3272     4.2998 H       
  45 H45            0.4530    -4.7272     5.2287 H       
  46 H46            1.9743    -3.2732     3.9502 H       
  47 H47            1.2971    -2.4224     1.7410 H       
@<TRIPOS>BOND
   1    1    2 ar
   2    1    8 1
   3    1    6 ar
   4    2    3 ar
   5    2   28 1
   6    3    4 ar
   7    3    9 1
   8    4    5 ar
   9    4   29 1
  10    5    6 ar
  11    5   30 1
  12    6    7 1
  13    7   31 1
  14    8   32 1
  15    9   10 1
  16    9   11 1
  17    9   12 1
  18   10   23 ar
  19   10   27 ar
  20   11   13 ar
  21   11   17 ar
  22   12   18 ar
  23   12   22 ar
  24   13   14 ar
  25   13   33 1
  26   14   15 ar
  27   14   34 1
  28   15   16 ar
  29   15   35 1
  30   16   17 ar
  31   16   36 1
  32   17   37 1
  33   18   19 ar
  34   18   38 1
  35   19   20 ar
  36   19   39 1
  37   20   21 ar
  38   20   40 1
  39   21   22 ar
  40   21   41 1
  41   22   42 1
  42   23   24 ar
  43   23   43 1
  44   24   25 ar
  45   24   44 1
  46   25   26 ar
  47   25   45 1
  48   26   27 ar
  49   26   46 1
  50   27   47 1

#	End of record

