#	Name: ASD04590688
#	Creating user name:	WinNT
#	Creation time:	15. 06. 2019 20:51

#	Modifying user name:	WinNT
#	Modification time:	15. 06. 2019 20:51

#	Program:	/corina/corina34_cracker 3.40 0067  02.08.2006

@<TRIPOS>MOLECULE
ASD04590688
  81   86    0    0    0
SMALL
NO_CHARGES


@<TRIPOS>ATOM
   1 N1            -2.6047    -2.7671     0.7491 N.ar    
   2 C2            -1.4743    -2.0844     0.8742 C.ar    
   3 N3            -0.2861    -2.6555     0.7612 N.ar    
   4 C4            -0.1830    -3.9574     0.5142 C.ar    
   5 C5            -1.3654    -4.7101     0.3765 C.ar    
   6 C6            -2.5913    -4.0675     0.5028 C.ar    
   7 N7             0.8834    -4.8080     0.3488 N.pl3   
   8 C8             0.4522    -6.0847     0.1088 C.2     
   9 C9            -0.9401    -6.0943     0.1127 C.2     
  10 N10           -1.5402    -0.7236     1.1322 N.pl3   
  11 C11           -2.7748    -0.0748     1.1426 C.ar    
  12 C12            2.2898    -4.4037     0.4191 C.3     
  13 C13            2.3945    -2.8700     0.4870 C.3     
  14 N14            1.1330    -7.2494    -0.1141 N.am    
  15 C15            0.4751    -8.4025    -0.3299 C.2     
  16 C16           -0.9272    -8.4404    -0.3318 C.2     
  17 C17           -1.6342    -7.2947    -0.1114 C.2     
  18 C18            3.0964    -2.5347     1.8191 C.3     
  19 C19            3.8923    -3.8182     2.1627 C.3     
  20 C20            2.9317    -4.9468     1.7125 C.3     
  21 N21           -3.8660    -0.7397     0.7990 N.ar    
  22 C22           -5.0546    -0.1666     0.7943 C.ar    
  23 C23           -5.2011     1.1651     1.1525 C.ar    
  24 C24           -4.0736     1.8978     1.5206 C.ar    
  25 C25           -2.8456     1.2619     1.5194 C.ar    
  26 N26           -6.4654     1.7662     1.1442 N.3     
  27 O27            1.1061    -9.4287    -0.5268 O.2     
  28 C28            2.5980    -7.2411    -0.1186 C.3     
  29 C29           -6.3804     3.1693     0.6990 C.3     
  30 C30           -7.3176     3.3204    -0.5177 C.3     
  31 C31           -8.3101     2.1409    -0.3430 C.3     
  32 C32           -7.3903     1.0425     0.2461 C.3     
  33 O33           -8.8500     1.7354    -1.6023 O.3     
  34 Si34         -10.2410     2.4879    -2.0011 Si      
  35 C35          -10.8301     1.8679    -3.6562 C.3     
  36 C36          -11.5335     2.1300    -0.7080 C.3     
  37 C37           -9.9483     4.3254    -2.0946 C.3     
  38 C38          -11.0705     0.3589    -3.5794 C.3     
  39 C39          -12.1350     2.5738    -4.0303 C.3     
  40 C40           -9.7686     2.1619    -4.7182 C.3     
  41 H41           -3.5147    -4.6186     0.4025 H       
  42 H42           -0.7277    -0.2229     1.3054 H       
  43 H43            2.8292    -4.7766    -0.4515 H       
  44 H44            2.9855    -2.4987    -0.3503 H       
  45 H45            1.3989    -2.4265     0.4675 H       
  46 H46           -1.4445    -9.3722    -0.5068 H       
  47 H47           -2.7141    -7.3103    -0.1103 H       
  48 H48            3.7725    -1.6892     1.6918 H       
  49 H49            2.3608    -2.3227     2.5951 H       
  50 H50            4.8247    -3.8570     1.5995 H       
  51 H51            4.0841    -3.8787     3.2340 H       
  52 H52            2.1696    -5.1244     2.4712 H       
  53 H53            3.4876    -5.8617     1.5073 H       
  54 H54           -5.9232    -0.7410     0.5080 H       
  55 H55           -4.1579     2.9365     1.8043 H       
  56 H56           -1.9514     1.7992     1.7990 H       
  57 H57            2.9649    -7.3288     0.9041 H       
  58 H58            2.9643    -8.0807    -0.7093 H       
  59 H59            2.9547    -6.3076    -0.5538 H       
  60 H60           -6.7038     3.8330     1.5008 H       
  61 H61           -5.3563     3.4051     0.4098 H       
  62 H62           -7.8431     4.2747    -0.4832 H       
  63 H63           -6.7597     3.2199    -1.4487 H       
  64 H64           -9.1055     2.4002     0.3558 H       
  65 H65           -6.8353     0.5454    -0.5496 H       
  66 H66           -7.9776     0.3180     0.8101 H       
  67 H67          -11.1889     2.4927     0.2604 H       
  68 H68          -12.4631     2.6329    -0.9745 H       
  69 H69          -11.7048     1.0549    -0.6533 H       
  70 H70           -9.1921     4.5348    -2.8512 H       
  71 H71          -10.8779     4.8283    -2.3611 H       
  72 H72           -9.6036     4.6881    -1.1262 H       
  73 H73          -11.8267     0.1495    -2.8229 H       
  74 H74          -11.4152    -0.0039    -4.5478 H       
  75 H75          -10.1409    -0.1440    -3.3129 H       
  76 H76          -11.9637     3.6489    -4.0850 H       
  77 H77          -12.4796     2.2111    -4.9987 H       
  78 H78          -12.8912     2.3644    -3.2737 H       
  79 H79           -8.8390     1.6589    -4.4517 H       
  80 H80          -10.1133     1.7991    -5.6865 H       
  81 H81           -9.5974     3.2369    -4.7729 H       
@<TRIPOS>BOND
   1    1    2 ar
   2    1    6 ar
   3    2    3 ar
   4    2   10 1
   5    3    4 ar
   6    4    5 ar
   7    4    7 1
   8    5    6 ar
   9    5    9 1
  10    6   41 1
  11    7    8 1
  12    7   12 1
  13    8    9 2
  14    8   14 1
  15    9   17 1
  16   10   11 1
  17   10   42 1
  18   11   21 ar
  19   11   25 ar
  20   12   13 1
  21   12   20 1
  22   12   43 1
  23   13   18 1
  24   13   44 1
  25   13   45 1
  26   14   15 am
  27   14   28 1
  28   15   16 1
  29   15   27 2
  30   16   17 2
  31   16   46 1
  32   17   47 1
  33   18   19 1
  34   18   48 1
  35   18   49 1
  36   19   20 1
  37   19   50 1
  38   19   51 1
  39   20   52 1
  40   20   53 1
  41   21   22 ar
  42   22   23 ar
  43   22   54 1
  44   23   24 ar
  45   23   26 1
  46   24   25 ar
  47   24   55 1
  48   25   56 1
  49   26   29 1
  50   26   32 1
  51   28   57 1
  52   28   58 1
  53   28   59 1
  54   29   30 1
  55   29   60 1
  56   29   61 1
  57   30   31 1
  58   30   62 1
  59   30   63 1
  60   31   32 1
  61   31   33 1
  62   31   64 1
  63   32   65 1
  64   32   66 1
  65   33   34 1
  66   34   35 1
  67   34   36 1
  68   34   37 1
  69   35   38 1
  70   35   39 1
  71   35   40 1
  72   36   67 1
  73   36   68 1
  74   36   69 1
  75   37   70 1
  76   37   71 1
  77   37   72 1
  78   38   73 1
  79   38   74 1
  80   38   75 1
  81   39   76 1
  82   39   77 1
  83   39   78 1
  84   40   79 1
  85   40   80 1
  86   40   81 1

#	End of record

