#	Name: ASD01948188
#	Creating user name:	WinNT
#	Creation time:	15. 06. 2019 20:13

#	Modifying user name:	WinNT
#	Modification time:	15. 06. 2019 20:13

#	Program:	/corina/corina34_cracker 3.40 0067  02.08.2006

@<TRIPOS>MOLECULE
ASD01948188
  29   32    0    0    0
SMALL
NO_CHARGES


@<TRIPOS>ATOM
   1 C1            -0.0169     1.3983     0.0097 C.ar    
   2 C2             0.0021    -0.0041     0.0020 C.ar    
   3 C3            -1.1953    -0.7271     0.0095 C.ar    
   4 C4            -2.4006    -0.0585     0.0246 C.ar    
   5 C5            -2.4277     1.3358     0.0319 C.ar    
   6 C6            -1.2417     2.0635     0.0301 C.ar    
   7 F7            -3.5579    -0.7553     0.0319 F       
   8 O8             1.2658     1.8168    -0.0003 O.3     
   9 C9             2.1110     0.7710    -0.0139 C.2     
  10 C10            1.4218    -0.3779    -0.0135 C.2     
  11 F11           -1.1705    -2.0778     0.0016 F       
  12 N12           -1.5943     3.4135     0.0387 N.am    
  13 N13           -3.4702     2.2642     0.0464 N.am    
  14 C14           -2.9377     3.5005     0.0455 C.2     
  15 C15           -4.8389     1.9606     0.0569 C.ar    
  16 C16           -5.5300     1.8163    -1.1413 C.ar    
  17 C17           -5.5057     1.7978     1.2629 C.ar    
  18 C18           -6.8547     1.4986     1.2707 C.ar    
  19 C19           -7.5415     1.3607     0.0783 C.ar    
  20 C20           -6.8797     1.5169    -1.1267 C.ar    
  21 I21           -9.5866     0.9064     0.0965 I       
  22 F22           -4.8835     1.9689    -2.3178 F       
  23 O23           -3.5735     4.5382     0.0567 O.2     
  24 H24            3.1883     0.8463    -0.0243 H       
  25 H25            1.8289    -1.3782    -0.0222 H       
  26 H26           -0.9769     4.1616     0.0399 H       
  27 H27           -4.9705     1.9045     2.1949 H       
  28 H28           -7.3734     1.3720     2.2095 H       
  29 H29           -7.4186     1.4086    -2.0564 H       
@<TRIPOS>BOND
   1    1    2 ar
   2    1    8 1
   3    1    6 ar
   4    2    3 ar
   5    2   10 1
   6    3    4 ar
   7    3   11 1
   8    4    5 ar
   9    4    7 1
  10    5    6 ar
  11    5   13 1
  12    6   12 1
  13    8    9 1
  14    9   10 2
  15    9   24 1
  16   10   25 1
  17   12   14 am
  18   12   26 1
  19   13   14 am
  20   13   15 1
  21   14   23 2
  22   15   16 ar
  23   15   17 ar
  24   16   22 1
  25   16   20 ar
  26   17   18 ar
  27   17   27 1
  28   18   19 ar
  29   18   28 1
  30   19   20 ar
  31   19   21 1
  32   20   29 1

#	End of record

