#	Name: ASD02500969
#	Creating user name:	WinNT
#	Creation time:	15. 06. 2019 20:23

#	Modifying user name:	WinNT
#	Modification time:	15. 06. 2019 20:23

#	Program:	/corina/corina34_cracker 3.40 0067  02.08.2006

@<TRIPOS>MOLECULE
ASD02500969
  27   28    0    0    0
SMALL
NO_CHARGES


@<TRIPOS>ATOM
   1 N1            -0.0168     1.3885     0.0097 N.pl3   
   2 C2             0.0021    -0.0041     0.0020 C.2     
   3 C3             1.3219    -0.4050    -0.0127 C.2     
   4 C4             2.1351     0.7511    -0.0143 C.2     
   5 C5             1.2920     1.8501    -0.0003 C.2     
   6 C6            -0.8954    -1.0771     0.0048 C.2     
   7 C7            -0.3464    -2.2862    -0.0069 C.2     
   8 S8             1.4052    -2.1636    -0.0235 S.3     
   9 C9             1.6935     3.2019     0.0031 C.2     
  10 O10            2.8778     3.4854    -0.0067 O.2     
  11 O11            0.7646     4.1822     0.0172 O.3     
  12 C12           -1.2183     2.2266     0.0202 C.3     
  13 N13            3.5251     0.7800    -0.0267 N.pl3   
  14 C14            1.2425     5.5289     0.0199 C.3     
  15 C15            0.0538     6.4919     0.0364 C.3     
  16 H16           -1.9655    -0.9316     0.0162 H       
  17 H17           -0.8992    -3.2140    -0.0064 H       
  18 H18           -1.5113     2.4289     1.0504 H       
  19 H19           -1.0097     3.1672    -0.4896 H       
  20 H20           -2.0280     1.7073    -0.4925 H       
  21 H21            4.0273    -0.0498    -0.0358 H       
  22 H22            3.9926     1.6299    -0.0263 H       
  23 H23            1.8568     5.6946     0.9049 H       
  24 H24            1.8398     5.7042    -0.8749 H       
  25 H25            0.4183     7.5191     0.0384 H       
  26 H26           -0.5605     6.3261    -0.8487 H       
  27 H27           -0.5435     6.3166     0.9312 H       
@<TRIPOS>BOND
   1    1    2 1
   2    1    5 1
   3    1   12 1
   4    2    3 2
   5    2    6 1
   6    3    4 1
   7    3    8 1
   8    4    5 2
   9    4   13 1
  10    5    9 1
  11    6    7 2
  12    6   16 1
  13    7    8 1
  14    7   17 1
  15    9   10 2
  16    9   11 1
  17   11   14 1
  18   12   18 1
  19   12   19 1
  20   12   20 1
  21   13   21 1
  22   13   22 1
  23   14   15 1
  24   14   23 1
  25   14   24 1
  26   15   25 1
  27   15   26 1
  28   15   27 1

#	End of record

