#	Name: ASD04230152
#	Creating user name:	WinNT
#	Creation time:	15. 06. 2019 20:48

#	Modifying user name:	WinNT
#	Modification time:	15. 06. 2019 20:48

#	Program:	/corina/corina34_cracker 3.40 0067  02.08.2006

@<TRIPOS>MOLECULE
ASD04230152
  52   56    0    0    0
SMALL
NO_CHARGES


@<TRIPOS>ATOM
   1 C1             1.5352     4.6834     1.7262 C.ar    
   2 C2             2.5435     5.3814     2.3752 C.ar    
   3 C3             3.8004     4.8569     2.4722 C.ar    
   4 C4             4.0825     3.6064     1.9035 C.ar    
   5 C5             3.0561     2.8799     1.2731 C.ar    
   6 C6             1.7825     3.4372     1.1781 C.ar    
   7 C7             5.3937     3.0668     1.9635 C.2     
   8 C8             5.6630     1.9279     1.2163 C.2     
   9 C9             4.5667     1.3870     0.3920 C.2     
  10 O10            3.2977     1.6407     0.7824 O.3     
  11 C11            6.9881     1.2867     1.2461 C.2     
  12 N12            7.2189     0.1819     0.5095 N.am    
  13 O13            7.8745     1.7542     1.9355 O.2     
  14 C14            8.5060    -0.3620     0.4491 C.ar    
  15 C15            8.6756    -1.7385     0.3660 C.ar    
  16 C16            9.9461    -2.2793     0.3057 C.ar    
  17 C17           11.0533    -1.4550     0.3281 C.ar    
  18 C18           10.8924    -0.0732     0.4114 C.ar    
  19 C19            9.6136     0.4729     0.4664 C.ar    
  20 C20           12.0824     0.8145     0.4360 C.2     
  21 O21            4.7970     0.7333    -0.6081 O.2     
  22 O22            0.7859     2.7582     0.5498 O.3     
  23 C23           13.3863     0.4165     0.3840 C.2     
  24 N24           14.1532     1.5244     0.4303 N.pl3   
  25 N25           13.3086     2.6380     0.5130 N.2     
  26 C26           12.0702     2.2209     0.5112 C.2     
  27 C27           15.6175     1.5574     0.3999 C.3     
  28 C28           16.0766     2.4484    -0.7254 C.ar    
  29 C29           16.2815     3.7968    -0.4999 C.ar    
  30 C30           16.7025     4.6141    -1.5321 C.ar    
  31 C31           16.9192     4.0830    -2.7898 C.ar    
  32 C32           16.7152     2.7345    -3.0152 C.ar    
  33 C33           16.2983     1.9163    -1.9819 C.ar    
  34 H34            0.5478     5.1144     1.6520 H       
  35 H35            2.3323     6.3484     2.8072 H       
  36 H36            4.5765     5.4047     2.9860 H       
  37 H37            6.1583     3.5278     2.5712 H       
  38 H38            6.4924    -0.2360     0.0213 H       
  39 H39            7.8126    -2.3876     0.3488 H       
  40 H40           10.0731    -3.3498     0.2411 H       
  41 H41           12.0446    -1.8812     0.2815 H       
  42 H42            9.4841     1.5432     0.5306 H       
  43 H43            0.2742     2.1816     1.1335 H       
  44 H44           13.7402    -0.6018     0.3181 H       
  45 H45           11.1907     2.8454     0.5652 H       
  46 H46           15.9920     1.9460     1.3469 H       
  47 H47           16.0005     0.5488     0.2441 H       
  48 H48           16.1122     4.2117     0.4828 H       
  49 H49           16.8619     5.6677    -1.3560 H       
  50 H50           17.2475     4.7217    -3.5965 H       
  51 H51           16.8842     2.3196    -3.9979 H       
  52 H52           16.1390     0.8628    -2.1579 H       
@<TRIPOS>BOND
   1    1    2 ar
   2    1    6 ar
   3    1   34 1
   4    2    3 ar
   5    2   35 1
   6    3    4 ar
   7    3   36 1
   8    4    5 ar
   9    4    7 1
  10    5    6 ar
  11    5   10 1
  12    6   22 1
  13    7    8 2
  14    7   37 1
  15    8    9 1
  16    8   11 1
  17    9   10 1
  18    9   21 2
  19   11   12 am
  20   11   13 2
  21   12   14 1
  22   12   38 1
  23   14   15 ar
  24   14   19 ar
  25   15   16 ar
  26   15   39 1
  27   16   17 ar
  28   16   40 1
  29   17   18 ar
  30   17   41 1
  31   18   19 ar
  32   18   20 1
  33   19   42 1
  34   20   23 2
  35   20   26 1
  36   22   43 1
  37   23   24 1
  38   23   44 1
  39   24   25 1
  40   24   27 1
  41   25   26 2
  42   26   45 1
  43   27   28 1
  44   27   46 1
  45   27   47 1
  46   28   29 ar
  47   28   33 ar
  48   29   30 ar
  49   29   48 1
  50   30   31 ar
  51   30   49 1
  52   31   32 ar
  53   31   50 1
  54   32   33 ar
  55   32   51 1
  56   33   52 1

#	End of record

