#	Name: ASD01940135
#	Creating user name:	WinNT
#	Creation time:	15. 06. 2019 20:11

#	Modifying user name:	WinNT
#	Modification time:	15. 06. 2019 20:11

#	Program:	/corina/corina34_cracker 3.40 0067  02.08.2006

@<TRIPOS>MOLECULE
ASD01940135
  43   45    0    0    0
SMALL
NO_CHARGES


@<TRIPOS>ATOM
   1 C1             2.0070     4.4775    -3.1807 C.3     
   2 C2             2.1434     3.0871    -2.5569 C.3     
   3 C3             3.0442     3.4932    -3.7250 C.3     
   4 S4             0.5410     4.7981    -4.1998 S.o2    
   5 O5             0.5523     6.1344    -4.6831 O.2     
   6 O6             0.2921     3.7052    -5.0732 O.2     
   7 N7            -0.7222     4.7616    -3.1296 N.am    
   8 C8            -1.2530     5.9588    -2.6311 C.ar    
   9 C9            -1.3275     6.1703    -1.2549 C.ar    
  10 C10           -1.8538     7.3584    -0.7666 C.ar    
  11 C11           -2.3031     8.3298    -1.6474 C.ar    
  12 C12           -2.2285     8.1173    -3.0130 C.ar    
  13 C13           -1.6998     6.9377    -3.5053 C.ar    
  14 N14           -0.8727     5.1858    -0.3669 N.pl3   
  15 C15           -1.5419     3.9611    -0.2784 C.ar    
  16 C16           -2.8201     3.9028     0.2684 C.ar    
  17 C17           -3.4783     2.6903     0.3536 C.ar    
  18 C18           -2.8666     1.5362    -0.1037 C.ar    
  19 C19           -1.5962     1.5919    -0.6470 C.ar    
  20 C20           -0.9348     2.8015    -0.7410 C.ar    
  21 I21           -3.8674    -0.2996     0.0281 I       
  22 F22           -3.4168     5.0294     0.7156 F       
  23 F23           -2.8153     9.4860    -1.1720 F       
  24 F24           -1.9284     7.5675     0.5661 F       
  25 C25            2.5210     5.6690    -2.3701 C.3     
  26 C26            2.3563     6.9325    -3.1748 C.2     
  27 C27            1.6597     7.9309    -2.6911 C.2     
  28 H28            2.5993     3.0213    -1.5690 H       
  29 H29            1.3522     2.3651    -2.7588 H       
  30 H30            2.8457     3.0383    -4.6954 H       
  31 H31            4.0928     3.6945    -3.5056 H       
  32 H32           -1.0947     3.9115    -2.8478 H       
  33 H33           -2.5803     8.8762    -3.6961 H       
  34 H34           -1.6387     6.7775    -4.5716 H       
  35 H35           -0.0937     5.3539     0.1861 H       
  36 H36           -4.4704     2.6434     0.7777 H       
  37 H37           -1.1217     0.6890    -1.0022 H       
  38 H38            0.0555     2.8440    -1.1696 H       
  39 H39            1.9518     5.7512    -1.4441 H       
  40 H40            3.5755     5.5218    -2.1366 H       
  41 H41            2.8127     7.0149    -4.1502 H       
  42 H42            1.4709     8.8027    -3.3001 H       
  43 H43            1.2741     7.8823    -1.6835 H       
@<TRIPOS>BOND
   1    1    2 1
   2    1    3 1
   3    1    4 1
   4    1   25 1
   5    2    3 1
   6    2   28 1
   7    2   29 1
   8    3   30 1
   9    3   31 1
  10    4    5 2
  11    4    6 2
  12    4    7 am
  13    7    8 1
  14    7   32 1
  15    8    9 ar
  16    8   13 ar
  17    9   10 ar
  18    9   14 1
  19   10   11 ar
  20   10   24 1
  21   11   12 ar
  22   11   23 1
  23   12   13 ar
  24   12   33 1
  25   13   34 1
  26   14   15 1
  27   14   35 1
  28   15   16 ar
  29   15   20 ar
  30   16   17 ar
  31   16   22 1
  32   17   18 ar
  33   17   36 1
  34   18   19 ar
  35   18   21 1
  36   19   20 ar
  37   19   37 1
  38   20   38 1
  39   25   26 1
  40   25   39 1
  41   25   40 1
  42   26   27 2
  43   26   41 1
  44   27   42 1
  45   27   43 1

#	End of record

