#	Name: ASD01530003
#	Creating user name:	WinNT
#	Creation time:	15. 06. 2019 19:22

#	Modifying user name:	WinNT
#	Modification time:	15. 06. 2019 19:22

#	Program:	/corina/corina34_cracker 3.40 0067  02.08.2006

@<TRIPOS>MOLECULE
ASD01530003
  30   31    0    0    0
SMALL
NO_CHARGES


@<TRIPOS>ATOM
   1 C1            -0.0166     1.3712     0.0096 C.ar    
   2 C2             0.0021    -0.0041     0.0020 C.ar    
   3 C3            -1.2595    -0.8244     0.0599 C.3     
   4 C4            -2.2641    -0.3463    -0.9923 C.3     
   5 N5            -3.1468     0.6350    -0.3587 N.3     
   6 C6            -2.4359     1.4150     0.6625 C.3     
   7 C7            -1.2938     2.1741    -0.0113 C.3     
   8 C8             1.1820     2.0738     0.0019 C.ar    
   9 C9             2.3870     1.4030    -0.0353 C.ar    
  10 C10            2.4039     0.0212    -0.0652 C.ar    
  11 C11            1.2145    -0.6786    -0.0465 C.ar    
  12 C12            3.6814     2.1748    -0.0438 C.3     
  13 C13            1.1657     3.5804     0.0340 C.3     
  14 H14           -1.0163    -1.8707    -0.1252 H       
  15 H15           -1.7044    -0.7295     1.0504 H       
  16 H16           -1.7342     0.1174    -1.8243 H       
  17 H17           -2.8507    -1.1913    -1.3529 H       
  18 H18           -3.5684     1.2400    -1.0474 H       
  19 H19           -3.1228     2.1233     1.1258 H       
  20 H20           -2.0322     0.7438     1.4204 H       
  21 H21           -1.1323     3.1157     0.5134 H       
  22 H22           -1.5662     2.3848    -1.0455 H       
  23 H23            3.3442    -0.5088    -0.1034 H       
  24 H24            1.2271    -1.7582    -0.0701 H       
  25 H25            4.0131     2.3392     0.9814 H       
  26 H26            4.4391     1.6074    -0.5842 H       
  27 H27            3.5282     3.1358    -0.5346 H       
  28 H28            1.1810     3.9220     1.0689 H       
  29 H29            2.0419     3.9645    -0.4884 H       
  30 H30            0.2623     3.9445    -0.4555 H       
@<TRIPOS>BOND
   1    1    2 ar
   2    1    8 ar
   3    1    7 1
   4    2    3 1
   5    2   11 ar
   6    3    4 1
   7    3   14 1
   8    3   15 1
   9    4    5 1
  10    4   16 1
  11    4   17 1
  12    5    6 1
  13    5   18 1
  14    6    7 1
  15    6   19 1
  16    6   20 1
  17    7   21 1
  18    7   22 1
  19    8    9 ar
  20    8   13 1
  21    9   10 ar
  22    9   12 1
  23   10   11 ar
  24   10   23 1
  25   11   24 1
  26   12   25 1
  27   12   26 1
  28   12   27 1
  29   13   28 1
  30   13   29 1
  31   13   30 1

#	End of record

