#	Name: ASD03092431
#	Creating user name:	WinNT
#	Creation time:	15. 06. 2019 20:32

#	Modifying user name:	WinNT
#	Modification time:	15. 06. 2019 20:32

#	Program:	/corina/corina34_cracker 3.40 0067  02.08.2006

@<TRIPOS>MOLECULE
ASD03092431
  58   61    0    0    0
SMALL
NO_CHARGES


@<TRIPOS>ATOM
   1 C1            -0.7445     1.1580    -0.2086 C.ar    
   2 C2            -0.9073    -0.2252    -0.2411 C.ar    
   3 C3             0.2146    -1.0329    -0.3387 C.ar    
   4 C4             1.4609    -0.4289    -0.4003 C.ar    
   5 C5             1.5483     0.9534    -0.3630 C.ar    
   6 N6             0.4670     1.6963    -0.2701 N.ar    
   7 C7            -1.9343     2.0356    -0.1108 C.2     
   8 O8            -3.0462     1.5482    -0.0593 O.2     
   9 N9            -1.7833     3.3745    -0.0790 N.am    
  10 C10           -2.9597     4.2422     0.0178 C.3     
  11 S11           -1.8327     8.0105     0.7445 S.3     
  12 C12           -1.9049     7.6050    -0.9145 C.2     
  13 N13           -2.2775     6.3690    -1.0606 N.2     
  14 C14           -2.5205     5.6837     0.0355 C.2     
  15 C15           -2.3433     6.3808     1.1773 C.2     
  16 C16           -3.4445     6.0782     4.7550 C.ar    
  17 C17           -3.2838     6.5950     3.4877 C.ar    
  18 C18           -2.5417     5.8682     2.5471 C.ar    
  19 C19           -1.9937     4.6409     2.9434 C.ar    
  20 C20           -2.2044     4.2005     4.2320 C.ar    
  21 N21           -2.9108     4.9171     5.0867 N.ar    
  22 C22           -1.6209     2.8824     4.6716 C.3     
  23 C23           -4.2349     6.8521     5.7785 C.3     
  24 N24           -1.6095     8.4693    -1.9529 N.3     
  25 C25           -1.2215     9.7925    -1.4429 C.3     
  26 C26           -0.9618    10.7323    -2.6232 C.3     
  27 O27            0.0414    10.1623    -3.4682 O.3     
  28 C28           -0.3038     8.8736    -3.9832 C.3     
  29 C29           -0.5569     7.9149    -2.8167 C.3     
  30 C30            0.8456     8.3417    -4.8415 C.3     
  31 C31           -0.4803    12.0874    -2.1009 C.3     
  32 H32           -1.8938    -0.6619    -0.1907 H       
  33 H33            0.1202    -2.1085    -0.3656 H       
  34 H34            2.3549    -1.0300    -0.4764 H       
  35 H35            2.5176     1.4272    -0.4108 H       
  36 H36           -0.8957     3.7636    -0.1201 H       
  37 H37           -3.6092     4.0708    -0.8407 H       
  38 H38           -3.5031     4.0166     0.9353 H       
  39 H39           -3.7236     7.5453     3.2233 H       
  40 H40           -1.4154     4.0490     2.2493 H       
  41 H41           -0.6242     3.0450     5.0817 H       
  42 H42           -2.2600     2.4387     5.4350 H       
  43 H43           -1.5565     2.2102     3.8160 H       
  44 H44           -5.2842     6.5626     5.7221 H       
  45 H45           -3.8508     6.6340     6.7750 H       
  46 H46           -4.1412     7.9195     5.5785 H       
  47 H47           -2.0256    10.1952    -0.8270 H       
  48 H48           -0.3151     9.7005    -0.8446 H       
  49 H49           -1.8825    10.8667    -3.1909 H       
  50 H50           -1.2054     8.9539    -4.5905 H       
  51 H51            0.3601     7.7929    -2.2403 H       
  52 H52           -0.8759     6.9471    -3.2036 H       
  53 H53            1.7461     8.2600    -4.2326 H       
  54 H54            0.5819     7.3595    -5.2337 H       
  55 H55            1.0279     9.0266    -5.6696 H       
  56 H56            0.4415    11.9520    -1.5350 H       
  57 H57           -0.2955    12.7561    -2.9416 H       
  58 H58           -1.2436    12.5195    -1.4539 H       
@<TRIPOS>BOND
   1    1    2 ar
   2    1    6 ar
   3    1    7 1
   4    2    3 ar
   5    2   32 1
   6    3    4 ar
   7    3   33 1
   8    4    5 ar
   9    4   34 1
  10    5    6 ar
  11    5   35 1
  12    7    8 2
  13    7    9 am
  14    9   10 1
  15    9   36 1
  16   10   14 1
  17   10   37 1
  18   10   38 1
  19   11   12 1
  20   11   15 1
  21   12   13 2
  22   12   24 1
  23   13   14 1
  24   14   15 2
  25   15   18 1
  26   16   17 ar
  27   16   21 ar
  28   16   23 1
  29   17   18 ar
  30   17   39 1
  31   18   19 ar
  32   19   20 ar
  33   19   40 1
  34   20   21 ar
  35   20   22 1
  36   22   41 1
  37   22   42 1
  38   22   43 1
  39   23   44 1
  40   23   45 1
  41   23   46 1
  42   24   25 1
  43   24   29 1
  44   25   26 1
  45   25   47 1
  46   25   48 1
  47   26   27 1
  48   26   31 1
  49   26   49 1
  50   27   28 1
  51   28   29 1
  52   28   30 1
  53   28   50 1
  54   29   51 1
  55   29   52 1
  56   30   53 1
  57   30   54 1
  58   30   55 1
  59   31   56 1
  60   31   57 1
  61   31   58 1

#	End of record

