#	Name: ASD07930114
#	Creating user name:	WinNT
#	Creation time:	15. 06. 2019 21:11

#	Modifying user name:	WinNT
#	Modification time:	15. 06. 2019 21:11

#	Program:	/corina/corina34_cracker 3.40 0067  02.08.2006

@<TRIPOS>MOLECULE
ASD07930114
  49   52    0    0    0
SMALL
NO_CHARGES


@<TRIPOS>ATOM
   1 C1            -0.0180     1.4757     0.0102 C.2     
   2 C2             0.0021    -0.0041     0.0020 C.2     
   3 N3             1.1812     2.1511     0.0023 N.am    
   4 N4             1.1194    -0.6399     0.4289 N.am    
   5 C5             2.2492     0.1652     0.9143 C.3     
   6 C6             2.4259     1.3708    -0.0208 C.3     
   7 C7            -1.2009     2.1487     0.0195 C.2     
   8 C8            -1.2249     3.5488     0.0296 C.2     
   9 C9            -0.0456     4.2428     0.0307 C.2     
  10 C10            1.2139     3.4950     0.0143 C.2     
  11 O11           -0.9642    -0.6358    -0.3794 O.2     
  12 O12            2.2807     4.0852     0.0119 O.2     
  13 N13           -0.0429     5.6401     0.0413 N.pl3   
  14 N14            1.0827     6.4801     0.0432 N.2     
  15 C15            0.6372     7.7093     0.0543 C.2     
  16 N16           -0.6955     7.6881     0.0594 N.2     
  17 C17           -1.1201     6.4506     0.0458 C.2     
  18 C18            1.4926     8.9500     0.0611 C.3     
  19 C19            1.1999    -2.1025     0.4075 C.3     
  20 C20            1.7668    -2.5625    -0.9371 C.3     
  21 O21            3.1154    -2.1077    -1.0661 O.3     
  22 C22            3.7696    -2.4337    -2.2121 C.ar    
  23 C23            5.0814    -2.0245    -2.4035 C.ar    
  24 C24            5.7447    -2.3573    -3.5684 C.ar    
  25 C25            5.1016    -3.0983    -4.5444 C.ar    
  26 C26            3.7934    -3.5069    -4.3555 C.ar    
  27 C27            3.1285    -3.1809    -3.1891 C.ar    
  28 C28            5.7820    -1.2171    -1.3412 C.3     
  29 F29            7.0848    -0.9263    -1.7599 F       
  30 F30            5.0840    -0.0239    -1.1262 F       
  31 F31            5.8275    -1.9516    -0.1514 F       
  32 Cl32           5.9374    -3.5152    -6.0077 Cl      
  33 H33            2.0425     0.5138     1.9262 H       
  34 H34            3.1572    -0.4378     0.9100 H       
  35 H35            2.6244     1.0242    -1.0350 H       
  36 H36            3.2541     1.9883     0.3268 H       
  37 H37           -2.1298     1.5977     0.0187 H       
  38 H38           -2.1670     4.0768     0.0362 H       
  39 H39           -2.1526     6.1340     0.0418 H       
  40 H40            1.6953     9.2572    -0.9649 H       
  41 H41            0.9678     9.7503     0.5829 H       
  42 H42            2.4332     8.7400     0.5701 H       
  43 H43            1.8521    -2.4423     1.2121 H       
  44 H44            0.2039    -2.5233     0.5450 H       
  45 H45            1.7441    -3.6511    -0.9877 H       
  46 H46            1.1648    -2.1485    -1.7459 H       
  47 H47            6.7657    -2.0386    -3.7179 H       
  48 H48            3.2931    -4.0848    -5.1185 H       
  49 H49            2.1088    -3.5041    -3.0400 H       
@<TRIPOS>BOND
   1    1    2 1
   2    1    3 1
   3    1    7 2
   4    2    4 am
   5    2   11 2
   6    3    6 1
   7    3   10 am
   8    4    5 1
   9    4   19 1
  10    5    6 1
  11    5   33 1
  12    5   34 1
  13    6   35 1
  14    6   36 1
  15    7    8 1
  16    7   37 1
  17    8    9 2
  18    8   38 1
  19    9   10 1
  20    9   13 1
  21   10   12 2
  22   13   14 1
  23   13   17 1
  24   14   15 2
  25   15   16 1
  26   15   18 1
  27   16   17 2
  28   17   39 1
  29   18   40 1
  30   18   41 1
  31   18   42 1
  32   19   20 1
  33   19   43 1
  34   19   44 1
  35   20   21 1
  36   20   45 1
  37   20   46 1
  38   21   22 1
  39   22   23 ar
  40   22   27 ar
  41   23   24 ar
  42   23   28 1
  43   24   25 ar
  44   24   47 1
  45   25   26 ar
  46   25   32 1
  47   26   27 ar
  48   26   48 1
  49   27   49 1
  50   28   29 1
  51   28   30 1
  52   28   31 1

#	End of record

