#	Name: ASD09750005
#	Creating user name:	WinNT
#	Creation time:	15. 06. 2019 21:23

#	Modifying user name:	WinNT
#	Modification time:	15. 06. 2019 21:23

#	Program:	/corina/corina34_cracker 3.40 0067  02.08.2006

@<TRIPOS>MOLECULE
ASD09750005
  71   74    0    0    0
SMALL
NO_CHARGES


@<TRIPOS>ATOM
   1 C1             0.0230     1.3565    -0.4034 C.ar    
   2 C2             0.1273     0.0033    -0.5792 C.ar    
   3 C3             1.4081    -0.5675    -0.6378 C.ar    
   4 C4             2.5251     0.2602    -0.5154 C.ar    
   5 N5             2.3804     1.5581    -0.3469 N.ar    
   6 C6             1.1820     2.1225    -0.2885 C.ar    
   7 C7             1.5713    -2.0218    -0.8256 C.2     
   8 O8             2.5723    -2.5789    -0.4180 O.2     
   9 N9             0.6109    -2.7327    -1.4490 N.am    
  10 C10            0.6749    -4.1674    -1.7639 C.3     
  11 C11            0.7901    -4.9667    -0.4915 C.2     
  12 N12            1.2323    -6.2392    -0.5328 N.am    
  13 O13            0.4849    -4.4649     0.5696 O.2     
  14 C14           -0.6323    -4.5342    -2.4975 C.3     
  15 C15           -1.1121    -3.1686    -3.0563 C.3     
  16 C16           -0.6805    -2.2020    -1.9223 C.3     
  17 N17            1.0804     3.4918    -0.1101 N.3     
  18 C18            0.2631     3.8099     1.0684 C.3     
  19 C19            0.3239     5.3175     1.3363 C.3     
  20 N20           -0.0572     6.0265     0.1053 N.am    
  21 C21            0.6244     5.6633    -1.1464 C.3     
  22 C22            0.5517     4.1421    -1.3165 C.3     
  23 C23           -1.0056     6.9840     0.1240 C.2     
  24 O24           -1.2398     7.6250    -0.8786 O.2     
  25 C25           -1.7749     7.2580     1.3905 C.3     
  26 O26           -2.7156     8.3084     1.1586 O.3     
  27 C27           -3.4956     8.6808     2.2073 C.ar    
  28 C28           -4.4304     9.6941     2.0527 C.ar    
  29 C29           -5.2220    10.0708     3.1203 C.ar    
  30 C30           -5.0832     9.4388     4.3422 C.ar    
  31 C31           -4.1520     8.4290     4.4991 C.ar    
  32 C32           -3.3622     8.0444     3.4328 C.ar    
  33 C33           -5.9481     9.8518     5.5052 C.3     
  34 C34           -6.7765     8.6544     5.9752 C.3     
  35 C35           -5.0612    10.3401     6.6523 C.3     
  36 C36           -0.0698     6.3462    -2.3264 C.3     
  37 H37           -0.9480     1.8271    -0.3585 H       
  38 H38           -0.7560    -0.6114    -0.6704 H       
  39 H39            3.5160    -0.1673    -0.5589 H       
  40 H40            1.5322    -4.3680    -2.4064 H       
  41 H41            1.4764    -6.6405    -1.3815 H       
  42 H42            1.3065    -6.7537     0.2862 H       
  43 H43           -0.4356    -5.2352    -3.3088 H       
  44 H44           -1.3635    -4.9443    -1.8009 H       
  45 H45           -0.6061    -2.9296    -3.9917 H       
  46 H46           -2.1944    -3.1578    -3.1856 H       
  47 H47           -1.4165    -2.2075    -1.1184 H       
  48 H48           -0.5516    -1.1925    -2.3129 H       
  49 H49           -0.7700     3.5145     0.8850 H       
  50 H50            0.6478     3.2708     1.9341 H       
  51 H51           -0.3693     5.5753     2.1370 H       
  52 H52            1.3379     5.5980     1.6215 H       
  53 H53            1.6672     5.9771    -1.0998 H       
  54 H54            1.1457     3.8440    -2.1804 H       
  55 H55           -0.4854     3.8421    -1.4667 H       
  56 H56           -2.3053     6.3561     1.6958 H       
  57 H57           -1.0833     7.5570     2.1782 H       
  58 H58           -4.5389    10.1883     1.0985 H       
  59 H59           -5.9497    10.8598     3.0005 H       
  60 H60           -4.0450     7.9373     5.4547 H       
  61 H61           -2.6350     7.2554     3.5558 H       
  62 H62           -6.6154    10.6557     5.1943 H       
  63 H63           -6.1092     7.8505     6.2861 H       
  64 H64           -7.4020     8.9531     6.8164 H       
  65 H65           -7.4083     8.3065     5.1580 H       
  66 H66           -5.6867    10.6388     7.4934 H       
  67 H67           -4.3939     9.5363     6.9631 H       
  68 H68           -4.4710    11.1932     6.3174 H       
  69 H69            0.0934     7.4225    -2.2707 H       
  70 H70            0.3418     5.9643    -3.2607 H       
  71 H71           -1.1392     6.1385    -2.2887 H       
@<TRIPOS>BOND
   1    1    2 ar
   2    1    6 ar
   3    1   37 1
   4    2    3 ar
   5    2   38 1
   6    3    4 ar
   7    3    7 1
   8    4    5 ar
   9    4   39 1
  10    5    6 ar
  11    6   17 1
  12    7    8 2
  13    7    9 am
  14    9   10 1
  15    9   16 1
  16   10   11 1
  17   10   14 1
  18   10   40 1
  19   11   12 am
  20   11   13 2
  21   12   41 1
  22   12   42 1
  23   14   15 1
  24   14   43 1
  25   14   44 1
  26   15   16 1
  27   15   45 1
  28   15   46 1
  29   16   47 1
  30   16   48 1
  31   17   18 1
  32   17   22 1
  33   18   19 1
  34   18   49 1
  35   18   50 1
  36   19   20 1
  37   19   51 1
  38   19   52 1
  39   20   21 1
  40   20   23 am
  41   21   22 1
  42   21   36 1
  43   21   53 1
  44   22   54 1
  45   22   55 1
  46   23   24 2
  47   23   25 1
  48   25   26 1
  49   25   56 1
  50   25   57 1
  51   26   27 1
  52   27   28 ar
  53   27   32 ar
  54   28   29 ar
  55   28   58 1
  56   29   30 ar
  57   29   59 1
  58   30   31 ar
  59   30   33 1
  60   31   32 ar
  61   31   60 1
  62   32   61 1
  63   33   34 1
  64   33   35 1
  65   33   62 1
  66   34   63 1
  67   34   64 1
  68   34   65 1
  69   35   66 1
  70   35   67 1
  71   35   68 1
  72   36   69 1
  73   36   70 1
  74   36   71 1

#	End of record

