#	Name: ASD02030135
#	Creating user name:	WinNT
#	Creation time:	15. 06. 2019 20:14

#	Modifying user name:	WinNT
#	Modification time:	15. 06. 2019 20:14

#	Program:	/corina/corina34_cracker 3.40 0067  02.08.2006

@<TRIPOS>MOLECULE
ASD02030135
  59   63    0    0    0
SMALL
NO_CHARGES


@<TRIPOS>ATOM
   1 N1            -0.3617     1.4567    -0.3874 N.am    
   2 C2            -0.3809    -0.0122    -0.3458 C.3     
   3 C3            -1.1653    -0.4572     0.8948 C.3     
   4 N4            -2.4425     0.2690     0.9283 N.am    
   5 C5            -2.4234     1.7380     0.8867 C.3     
   6 C6            -1.6387     2.1831    -0.3482 C.3     
   7 C7             0.8062     2.1258    -0.4546 C.2     
   8 C8             2.0856     1.3903    -0.3667 C.2     
   9 N9             3.2846     1.9282    -0.3033 N.2     
  10 N10            2.2287     0.0527    -0.3316 N.2     
  11 C11            3.5105    -0.1994    -0.2528 C.2     
  12 N12            4.1583     0.9836    -0.2360 N.pl3   
  13 O13            0.8077     3.3342    -0.5874 O.2     
  14 C14           -3.6105    -0.4001     0.9955 C.2     
  15 C15           -3.6202    -1.8756     0.9417 C.ar    
  16 O16           -4.6562     0.2112     1.1004 O.2     
  17 C17           -1.3731     3.6879    -0.2729 C.3     
  18 C18           -2.4422     1.8625    -1.6102 C.3     
  19 C19            5.5469     1.1561    -0.1588 C.ar    
  20 C20            6.0898     2.4341    -0.1496 C.ar    
  21 C21            7.4587     2.6008    -0.0735 C.ar    
  22 C22            8.2885     1.4967    -0.0069 C.ar    
  23 C23            7.7509     0.2226    -0.0158 C.ar    
  24 C24            6.3824     0.0495    -0.0856 C.ar    
  25 C25           -2.7298    -2.6058     1.7236 C.ar    
  26 C26           -4.5298    -2.5400     0.1075 C.ar    
  27 C27           -4.5514    -3.9020     0.0472 C.ar    
  28 C28           -3.6655    -4.6526     0.8173 C.ar    
  29 C29           -2.7494    -3.9967     1.6635 C.ar    
  30 N30           -3.4561    -6.0026     0.9640 N.pl3   
  31 C31           -2.4462    -6.2245     1.8606 C.2     
  32 C32           -1.9766    -5.0547     2.3208 C.2     
  33 C33           -4.2040    -7.0501     0.2642 C.3     
  34 H34           -0.8659    -0.3973    -1.2428 H       
  35 H35            0.6399    -0.3899    -0.2881 H       
  36 H36           -1.3553    -1.5292     0.8424 H       
  37 H37           -0.5907    -0.2284     1.7924 H       
  38 H38           -3.4442     2.1156     0.8290 H       
  39 H39           -1.9384     2.1230     1.7837 H       
  40 H40            3.9666    -1.1772    -0.2064 H       
  41 H41           -0.7065     3.8978     0.5635 H       
  42 H42           -0.9082     4.0217    -1.2006 H       
  43 H43           -2.3153     4.2164    -0.1281 H       
  44 H44           -3.3957     2.3897    -1.5776 H       
  45 H45           -1.8810     2.1806    -2.4888 H       
  46 H46           -2.6223     0.7888    -1.6632 H       
  47 H47            5.4422     3.2968    -0.2023 H       
  48 H48            7.8815     3.5946    -0.0663 H       
  49 H49            9.3587     1.6296     0.0518 H       
  50 H50            8.4016    -0.6378     0.0363 H       
  51 H51            5.9631    -0.9458    -0.0922 H       
  52 H52           -2.0299    -2.0982     2.3708 H       
  53 H53           -5.2209    -1.9673    -0.4932 H       
  54 H54           -5.2579    -4.4009    -0.5997 H       
  55 H55           -2.0828    -7.1976     2.1564 H       
  56 H56           -1.1807    -4.9186     3.0380 H       
  57 H57           -3.7049    -7.2869    -0.6754 H       
  58 H58           -4.2480    -7.9432     0.8875 H       
  59 H59           -5.2157    -6.6995     0.0599 H       
@<TRIPOS>BOND
   1    1    2 1
   2    1    7 am
   3    1    6 1
   4    2    3 1
   5    2   34 1
   6    2   35 1
   7    3    4 1
   8    3   36 1
   9    3   37 1
  10    4    5 1
  11    4   14 am
  12    5    6 1
  13    5   38 1
  14    5   39 1
  15    6   17 1
  16    6   18 1
  17    7    8 1
  18    7   13 2
  19    8    9 2
  20    8   10 1
  21    9   12 1
  22   10   11 2
  23   11   12 1
  24   11   40 1
  25   12   19 1
  26   14   15 1
  27   14   16 2
  28   15   26 ar
  29   15   25 ar
  30   17   41 1
  31   17   42 1
  32   17   43 1
  33   18   44 1
  34   18   45 1
  35   18   46 1
  36   19   20 ar
  37   19   24 ar
  38   20   21 ar
  39   20   47 1
  40   21   22 ar
  41   21   48 1
  42   22   23 ar
  43   22   49 1
  44   23   24 ar
  45   23   50 1
  46   24   51 1
  47   25   29 ar
  48   25   52 1
  49   26   27 ar
  50   26   53 1
  51   27   28 ar
  52   27   54 1
  53   28   29 ar
  54   28   30 1
  55   29   32 1
  56   30   31 1
  57   30   33 1
  58   31   32 2
  59   31   55 1
  60   32   56 1
  61   33   57 1
  62   33   58 1
  63   33   59 1

#	End of record

