#	Name: ASD02030672
#	Creating user name:	WinNT
#	Creation time:	15. 06. 2019 20:15

#	Modifying user name:	WinNT
#	Modification time:	15. 06. 2019 20:15

#	Program:	/corina/corina34_cracker 3.40 0067  02.08.2006

@<TRIPOS>MOLECULE
ASD02030672
  50   52    0    0    0
SMALL
NO_CHARGES


@<TRIPOS>ATOM
   1 N1            -0.0315     1.3894     0.0986 N.am    
   2 C2            -0.1046     0.0437     0.0833 C.2     
   3 C3            -1.4157    -0.6255     0.1926 C.ar    
   4 O4             0.9095    -0.6192    -0.0205 O.2     
   5 C5            -1.4937    -2.0205     0.1770 C.ar    
   6 C6            -2.7190    -2.6410     0.2792 C.ar    
   7 C7            -3.8768    -1.8817     0.3973 C.ar    
   8 C8            -3.8037    -0.4940     0.4127 C.ar    
   9 C9            -2.5817     0.1342     0.3177 C.ar    
  10 O10           -5.0829    -2.4973     0.4973 O.3     
  11 C11           -5.3038    -3.2336     1.6035 C.2     
  12 N12           -6.4373    -3.9535     1.7185 N.am    
  13 O13           -4.4811    -3.2487     2.4976 O.2     
  14 C14            1.2164     2.0221     0.1119 C.ar    
  15 C15            1.3869     3.2301    -0.5635 C.ar    
  16 C16            2.5980     3.8599    -0.5600 C.ar    
  17 C17            3.6752     3.2923     0.1246 C.ar    
  18 C18            3.5116     2.0741     0.8089 C.ar    
  19 C19            2.2704     1.4473     0.8000 C.ar    
  20 C20           -6.6776    -4.7543     2.9215 C.3     
  21 C21           -7.4292    -3.9353     0.6406 C.3     
  22 C22            5.0729     3.6846     0.3245 C.2     
  23 C23            5.6441     2.7323     1.0780 C.2     
  24 N24            4.7249     1.7634     1.3815 N.pl3   
  25 C25           -7.1216    -5.0561    -0.3546 C.3     
  26 C26           -7.4141    -3.9061     3.9602 C.3     
  27 C27            7.0824     2.7316     1.5279 C.3     
  28 H28           -0.8440     1.9193     0.0962 H       
  29 H29           -0.5944    -2.6114     0.0846 H       
  30 H30           -2.7801    -3.7192     0.2672 H       
  31 H31           -4.7059     0.0925     0.5039 H       
  32 H32           -2.5257     1.2126     0.3299 H       
  33 H33            0.5551     3.6703    -1.0933 H       
  34 H34            2.7232     4.7949    -1.0858 H       
  35 H35            2.1315     0.5119     1.3217 H       
  36 H36           -7.2846    -5.6225     2.6649 H       
  37 H37           -5.7245    -5.0863     3.3333 H       
  38 H38           -8.4242    -4.0847     1.0598 H       
  39 H39           -7.3914    -2.9740     0.1282 H       
  40 H40            5.5525     4.5719    -0.0616 H       
  41 H41            4.9033     0.9736     1.9155 H       
  42 H42           -7.1594    -6.0174     0.1578 H       
  43 H43           -7.8596    -5.0425    -1.1566 H       
  44 H44           -6.1266    -4.9067    -0.7738 H       
  45 H45           -6.8071    -3.0379     4.2169 H       
  46 H46           -8.3672    -3.5741     3.5484 H       
  47 H47           -7.5929    -4.5019     4.8553 H       
  48 H48            7.1635     3.2442     2.4864 H       
  49 H49            7.4291     1.7038     1.6350 H       
  50 H50            7.6948     3.2464     0.7876 H       
@<TRIPOS>BOND
   1    1    2 am
   2    1   14 1
   3    1   28 1
   4    2    3 1
   5    2    4 2
   6    3    5 ar
   7    3    9 ar
   8    5    6 ar
   9    5   29 1
  10    6    7 ar
  11    6   30 1
  12    7    8 ar
  13    7   10 1
  14    8    9 ar
  15    8   31 1
  16    9   32 1
  17   10   11 1
  18   11   12 am
  19   11   13 2
  20   12   20 1
  21   12   21 1
  22   14   15 ar
  23   14   19 ar
  24   15   16 ar
  25   15   33 1
  26   16   17 ar
  27   16   34 1
  28   17   18 ar
  29   17   22 1
  30   18   19 ar
  31   18   24 1
  32   19   35 1
  33   20   26 1
  34   20   36 1
  35   20   37 1
  36   21   25 1
  37   21   38 1
  38   21   39 1
  39   22   23 2
  40   22   40 1
  41   23   24 1
  42   23   27 1
  43   24   41 1
  44   25   42 1
  45   25   43 1
  46   25   44 1
  47   26   45 1
  48   26   46 1
  49   26   47 1
  50   27   48 1
  51   27   49 1
  52   27   50 1

#	End of record

