#	Name: ASD00060051
#	Creating user name:	WinNT
#	Creation time:	15. 06. 2019 18:29

#	Modifying user name:	WinNT
#	Modification time:	15. 06. 2019 18:29

#	Program:	/corina/corina34_cracker 3.40 0067  02.08.2006

@<TRIPOS>MOLECULE
ASD00060051
  45   47    0    0    0
SMALL
NO_CHARGES


@<TRIPOS>ATOM
   1 C1             1.7597    -0.2217    -3.4750 C.ar    
   2 C2             2.6486    -1.0593    -4.1215 C.ar    
   3 C3             4.0085    -0.8267    -4.0312 C.ar    
   4 C4             4.4796     0.2437    -3.2944 C.ar    
   5 C5             3.5911     1.0821    -2.6474 C.ar    
   6 C6             2.2307     0.8501    -2.7378 C.ar    
   7 C7             4.1049     2.2486    -1.8433 C.3     
   8 C8             5.3466     2.8246    -2.5250 C.3     
   9 C9             5.9862     3.8572    -1.5890 C.3     
  10 C10            6.5413     3.1231    -0.3659 C.3     
  11 C11            5.4989     2.1963     0.1905 C.2     
  12 N12            4.4255     1.7997    -0.4942 N.am    
  13 C13            4.9508     3.4906    -3.8176 C.2     
  14 O14            5.7633     3.4229    -4.8838 O.3     
  15 O15            3.9019     4.0855    -3.8942 O.2     
  16 C16            3.5112     0.8536     0.1500 C.3     
  17 O17            5.6411     1.7862     1.3230 O.2     
  18 C18            3.9807    -0.5766    -0.1242 C.3     
  19 C19            3.1549    -1.9944     1.7660 C.ar    
  20 C20            2.2506    -2.8881     2.3082 C.ar    
  21 C21            1.1850    -3.3389     1.5502 C.ar    
  22 C22            1.0248    -2.8950     0.2499 C.ar    
  23 C23            1.9299    -2.0016    -0.2915 C.ar    
  24 C24            2.9945    -1.5510     0.4665 C.ar    
  25 Br25          -0.0522    -4.5621     2.2912 Br      
  26 Br26           1.0148     1.9967    -1.8530 Br      
  27 H27            0.6972    -0.4010    -3.5490 H       
  28 H28            2.2810    -1.8960    -4.6970 H       
  29 H29            4.7029    -1.4818    -4.5363 H       
  30 H30            5.5419     0.4248    -3.2239 H       
  31 H31            3.3338     3.0171    -1.7904 H       
  32 H32            6.0579     2.0236    -2.7265 H       
  33 H33            6.7958     4.3708    -2.1075 H       
  34 H34            5.2348     4.5809    -1.2729 H       
  35 H35            7.4196     2.5471    -0.6572 H       
  36 H36            6.8230     3.8502     0.3957 H       
  37 H37            5.4666     3.8655    -5.6908 H       
  38 H38            3.5010     1.0328     1.2251 H       
  39 H39            2.5065     0.9892    -0.2504 H       
  40 H40            4.0494    -0.7364    -1.2002 H       
  41 H41            4.9598    -0.7307     0.3293 H       
  42 H42            3.9845    -1.6389     2.3592 H       
  43 H43            2.3763    -3.2346     3.3233 H       
  44 H44            0.1931    -3.2470    -0.3423 H       
  45 H45            1.8051    -1.6553    -1.3068 H       
@<TRIPOS>BOND
   1    1    2 ar
   2    1    6 ar
   3    1   27 1
   4    2    3 ar
   5    2   28 1
   6    3    4 ar
   7    3   29 1
   8    4    5 ar
   9    4   30 1
  10    5    6 ar
  11    5    7 1
  12    6   26 1
  13    7    8 1
  14    7   12 1
  15    7   31 1
  16    8    9 1
  17    8   13 1
  18    8   32 1
  19    9   10 1
  20    9   33 1
  21    9   34 1
  22   10   11 1
  23   10   35 1
  24   10   36 1
  25   11   12 am
  26   11   17 2
  27   12   16 1
  28   13   14 1
  29   13   15 2
  30   14   37 1
  31   16   18 1
  32   16   38 1
  33   16   39 1
  34   18   24 1
  35   18   40 1
  36   18   41 1
  37   19   20 ar
  38   19   24 ar
  39   19   42 1
  40   20   21 ar
  41   20   43 1
  42   21   22 ar
  43   21   25 1
  44   22   23 ar
  45   22   44 1
  46   23   24 ar
  47   23   45 1

#	End of record

