#	Name: ASD01190033
#	Creating user name:	WinNT
#	Creation time:	15. 06. 2019 19:07

#	Modifying user name:	WinNT
#	Modification time:	15. 06. 2019 19:07

#	Program:	/corina/corina34_cracker 3.40 0067  02.08.2006

@<TRIPOS>MOLECULE
ASD01190033
  55   58    0    0    0
SMALL
NO_CHARGES


@<TRIPOS>ATOM
   1 C1            -0.2497     1.4472    -0.5059 C.2     
   2 C2            -0.2190    -0.0128    -0.6969 C.2     
   3 C3             1.0850    -0.6929    -0.7016 C.2     
   4 C4             2.2039    -0.0116    -0.4959 C.2     
   5 C5             2.2214     1.4664    -0.2286 C.3     
   6 C6             0.8784     2.1073    -0.2972 C.2     
   7 C7             3.5287    -0.7488    -0.5466 C.3     
   8 C8             4.4701     0.0027    -1.4959 C.3     
   9 C9             4.5707     1.4609    -1.0524 C.3     
  10 C10            3.1935     2.1308    -1.2042 C.3     
  11 C11            5.5516     2.2328    -1.9112 C.3     
  12 C12            5.7076     3.6455    -1.2848 C.3     
  13 C13            4.4229     4.4114    -1.5573 C.3     
  14 C14            3.2982     3.6072    -0.9209 C.2     
  15 C15            6.9958     1.7158    -1.8825 C.3     
  16 C16            7.8225     2.9586    -2.3073 C.3     
  17 C17            6.9595     4.1967    -1.9633 C.3     
  18 C18            7.7052     5.1067    -1.0215 C.2     
  19 C19            7.3743     6.5762    -0.9737 C.3     
  20 O20           -1.2495    -0.6423    -0.8470 O.2     
  21 O21            2.4974     4.1471    -0.1958 O.2     
  22 O22            6.6064     4.9001    -3.1560 O.3     
  23 O23            8.5679     4.6584    -0.3052 O.2     
  24 O24            8.2103     7.2216    -0.0110 O.3     
  25 C25            8.1014     2.9146    -3.8110 C.3     
  26 C26            2.7763     1.6835     1.1806 C.3     
  27 C27            5.9314     3.5246     0.2239 C.3     
  28 H28           -1.1895     1.9782    -0.5404 H       
  29 H29            1.1317    -1.7580    -0.8739 H       
  30 H30            0.8216     3.1781    -0.1687 H       
  31 H31            3.9665    -0.7838     0.4510 H       
  32 H32            3.3698    -1.7622    -0.9152 H       
  33 H33            5.4586    -0.4558    -1.4670 H       
  34 H34            4.0761    -0.0428    -2.5112 H       
  35 H35            4.8835     1.5035    -0.0091 H       
  36 H36            2.8342     1.9904    -2.2237 H       
  37 H37            5.1829     2.3078    -2.9342 H       
  38 H38            4.4756     5.4022    -1.1059 H       
  39 H39            4.2595     4.4971    -2.6316 H       
  40 H40            7.2704     1.3957    -0.8773 H       
  41 H41            7.1281     0.9027    -2.5963 H       
  42 H42            8.7606     2.9910    -1.7532 H       
  43 H43            7.5423     7.0186    -1.9556 H       
  44 H44            6.3293     6.7043    -0.6914 H       
  45 H45            7.3616     5.2733    -3.6308 H       
  46 H46            8.0520     8.1718     0.0733 H       
  47 H47            7.1573     2.8833    -4.3549 H       
  48 H48            8.6598     3.8039    -4.1032 H       
  49 H49            8.6859     2.0251    -4.0462 H       
  50 H50            3.7368     1.1770     1.2748 H       
  51 H51            2.9093     2.7507     1.3583 H       
  52 H52            2.0780     1.2775     1.9125 H       
  53 H53            6.7728     2.8583     0.4142 H       
  54 H54            6.1465     4.5091     0.6393 H       
  55 H55            5.0344     3.1203     0.6930 H       
@<TRIPOS>BOND
   1    1    2 1
   2    1    6 2
   3    1   28 1
   4    2    3 1
   5    2   20 2
   6    3    4 2
   7    3   29 1
   8    4    5 1
   9    4    7 1
  10    5    6 1
  11    5   26 1
  12    5   10 1
  13    6   30 1
  14    7    8 1
  15    7   31 1
  16    7   32 1
  17    8    9 1
  18    8   33 1
  19    8   34 1
  20    9   10 1
  21    9   11 1
  22    9   35 1
  23   10   14 1
  24   10   36 1
  25   11   12 1
  26   11   15 1
  27   11   37 1
  28   12   13 1
  29   12   17 1
  30   12   27 1
  31   13   14 1
  32   13   38 1
  33   13   39 1
  34   14   21 2
  35   15   16 1
  36   15   40 1
  37   15   41 1
  38   16   17 1
  39   16   25 1
  40   16   42 1
  41   17   18 1
  42   17   22 1
  43   18   19 1
  44   18   23 2
  45   19   24 1
  46   19   43 1
  47   19   44 1
  48   22   45 1
  49   24   46 1
  50   25   47 1
  51   25   48 1
  52   25   49 1
  53   26   50 1
  54   26   51 1
  55   26   52 1
  56   27   53 1
  57   27   54 1
  58   27   55 1

#	End of record

