#	Name: ASD08150616
#	Creating user name:	WinNT
#	Creation time:	15. 06. 2019 21:16

#	Modifying user name:	WinNT
#	Modification time:	15. 06. 2019 21:16

#	Program:	/corina/corina34_cracker 3.40 0067  02.08.2006

@<TRIPOS>MOLECULE
ASD08150616
  68   74    0    0    0
SMALL
NO_CHARGES


@<TRIPOS>ATOM
   1 N1             0.8889     2.9248    -1.5275 N.am    
   2 C2             1.3173     2.3016    -2.6424 C.2     
   3 C3             2.5271     1.5779    -2.6475 C.2     
   4 C4             3.2807     1.4991    -1.5214 C.2     
   5 C5             2.8332     2.1536    -0.3465 C.ar    
   6 C6             3.5768     2.1038     0.8480 C.ar    
   7 N7             3.1616     2.7085     1.9303 N.ar    
   8 C8             2.0157     3.4053     1.9682 C.ar    
   9 C9             1.2034     3.5093     0.8122 C.ar    
  10 C10            1.6244     2.8660    -0.3753 C.ar    
  11 C11            0.0106     4.2371     0.8624 C.ar    
  12 C12           -0.3650     4.8505     2.0466 C.ar    
  13 C13            0.4443     4.7435     3.1864 C.ar    
  14 C14            1.6072     4.0392     3.1532 C.ar    
  15 O15            0.6494     2.3638    -3.6605 O.2     
  16 C16           -1.6287     5.6244     2.1086 C.ar    
  17 C17           -0.3130     3.6418    -1.5497 C.ar    
  18 C18           -0.3074     5.0011    -1.8348 C.ar    
  19 C19           -1.4950     5.7057    -1.8558 C.ar    
  20 C20           -2.6889     5.0593    -1.5929 C.ar    
  21 C21           -2.6979     3.7061    -1.3082 C.ar    
  22 C22           -1.5144     2.9944    -1.2921 C.ar    
  23 C23           -3.9829     5.8313    -1.6162 C.3     
  24 C24           -2.7602     5.1886     1.4008 C.ar    
  25 N25           -4.5475     5.8000    -2.9720 N.3     
  26 C26           -5.9164     6.3344    -2.9849 C.3     
  27 N27           -3.8882     5.8513     1.4371 N.ar    
  28 C28           -4.0196     6.9756     2.1492 C.ar    
  29 C29           -2.9221     7.4804     2.8913 C.ar    
  30 C30           -1.7030     6.7812     2.8709 C.ar    
  31 C31           -4.5111     4.4394    -3.5263 C.3     
  32 C32           -5.0329     4.4634    -4.9649 C.3     
  33 N33           -6.4018     4.9978    -4.9778 N.3     
  34 C34           -6.4382     6.3583    -4.4235 C.3     
  35 C35           -6.9664     4.9664    -6.3336 C.3     
  36 C36           -5.2393     7.6740     2.1754 C.ar    
  37 C37           -5.3491     8.8163     2.9071 C.ar    
  38 C38           -4.2690     9.3109     3.6355 C.ar    
  39 C39           -3.0718     8.6628     3.6356 C.ar    
  40 H40            2.8552     1.0844    -3.5504 H       
  41 H41            4.2079     0.9453    -1.5204 H       
  42 H42            4.5072     1.5557     0.8707 H       
  43 H43           -0.6131     4.3206    -0.0153 H       
  44 H44            0.1403     5.2271     4.1030 H       
  45 H45            2.2181     3.9666     4.0408 H       
  46 H46            0.6248     5.5066    -2.0395 H       
  47 H47           -1.4913     6.7627    -2.0775 H       
  48 H48           -3.6319     3.2043    -1.1026 H       
  49 H49           -1.5226     1.9366    -1.0744 H       
  50 H50           -4.6881     5.3797    -0.9184 H       
  51 H51           -3.7948     6.8647    -1.3248 H       
  52 H52           -2.6982     4.2852     0.8122 H       
  53 H53           -6.5601     5.7004    -2.3751 H       
  54 H54           -5.9153     7.3470    -2.5816 H       
  55 H55           -0.8476     7.1382     3.4252 H       
  56 H56           -3.4854     4.0706    -3.5176 H       
  57 H57           -5.1388     3.7839    -2.9226 H       
  58 H58           -4.3892     5.0974    -5.5747 H       
  59 H59           -5.0340     3.4508    -5.3683 H       
  60 H60           -7.4639     6.7272    -4.4322 H       
  61 H61           -5.8105     7.0139    -5.0272 H       
  62 H62           -6.9893     3.9380    -6.6940 H       
  63 H63           -7.9798     5.3674    -6.3146 H       
  64 H64           -6.3490     5.5707    -6.9984 H       
  65 H65           -6.0866     7.3054     1.6163 H       
  66 H66           -6.2888     9.3483     2.9233 H       
  67 H67           -4.3832    10.2198     4.2076 H       
  68 H68           -2.2418     9.0554     4.2042 H       
@<TRIPOS>BOND
   1    1    2 am
   2    1   10 1
   3    1   17 1
   4    2    3 1
   5    2   15 2
   6    3    4 2
   7    3   40 1
   8    4    5 1
   9    4   41 1
  10    5    6 ar
  11    5   10 ar
  12    6    7 ar
  13    6   42 1
  14    7    8 ar
  15    8    9 ar
  16    8   14 ar
  17    9   10 ar
  18    9   11 ar
  19   11   12 ar
  20   11   43 1
  21   12   13 ar
  22   12   16 1
  23   13   14 ar
  24   13   44 1
  25   14   45 1
  26   16   24 ar
  27   16   30 ar
  28   17   18 ar
  29   17   22 ar
  30   18   19 ar
  31   18   46 1
  32   19   20 ar
  33   19   47 1
  34   20   21 ar
  35   20   23 1
  36   21   22 ar
  37   21   48 1
  38   22   49 1
  39   23   25 1
  40   23   50 1
  41   23   51 1
  42   24   27 ar
  43   24   52 1
  44   25   26 1
  45   25   31 1
  46   26   34 1
  47   26   53 1
  48   26   54 1
  49   27   28 ar
  50   28   29 ar
  51   28   36 ar
  52   29   30 ar
  53   29   39 ar
  54   30   55 1
  55   31   32 1
  56   31   56 1
  57   31   57 1
  58   32   33 1
  59   32   58 1
  60   32   59 1
  61   33   34 1
  62   33   35 1
  63   34   60 1
  64   34   61 1
  65   35   62 1
  66   35   63 1
  67   35   64 1
  68   36   37 ar
  69   36   65 1
  70   37   38 ar
  71   37   66 1
  72   38   39 ar
  73   38   67 1
  74   39   68 1

#	End of record

