#	Name: ASD01148100
#	Creating user name:	WinNT
#	Creation time:	15. 06. 2019 19:02

#	Modifying user name:	WinNT
#	Modification time:	15. 06. 2019 19:02

#	Program:	/corina/corina34_cracker 3.40 0067  02.08.2006

@<TRIPOS>MOLECULE
ASD01148100
  53   54    0    0    0
SMALL
NO_CHARGES


@<TRIPOS>ATOM
   1 C1            -0.0166     1.3749     0.0096 C.ar    
   2 C2             0.0021    -0.0041     0.0020 C.ar    
   3 C3             1.1753     2.0867     0.0020 C.ar    
   4 C4             2.3892     1.4131    -0.0137 C.ar    
   5 C5             2.4142     0.0343    -0.0214 C.ar    
   6 C6             1.2192    -0.6830    -0.0133 C.ar    
   7 C7             1.2427    -2.1664    -0.0215 C.ar    
   8 C8             0.0486    -2.8848    -0.0135 C.ar    
   9 C9             2.4589    -2.8465    -0.0431 C.ar    
  10 C10            2.4748    -4.2265    -0.0506 C.ar    
  11 C11            1.2866    -4.9346    -0.0373 C.ar    
  12 C12            0.0765    -4.2647    -0.0212 C.ar    
  13 C13            1.3105    -6.4413    -0.0461 C.3     
  14 C14           -1.3322     2.1098     0.0198 C.3     
  15 C15           -2.1351     1.7356    -1.2277 C.3     
  16 C16           -2.1233     1.7220     1.2707 C.3     
  17 C17            3.6808     2.1895    -0.0228 C.3     
  18 C18            4.5021     1.8277     1.2163 C.3     
  19 C19            4.4767     1.8404    -1.2820 C.3     
  20 O20            1.1538     3.4452     0.0096 O.3     
  21 C21            2.0579    -6.9468     1.1895 C.3     
  22 C22           -0.1236    -6.9742    -0.0282 C.3     
  23 C23            2.0214    -6.9328    -1.3086 C.3     
  24 H24           -0.9255    -0.5573     0.0083 H       
  25 H25            3.3588    -0.4891    -0.0339 H       
  26 H26           -0.8967    -2.3628    -0.0009 H       
  27 H27            3.3872    -2.2946    -0.0543 H       
  28 H28            3.4167    -4.7546    -0.0674 H       
  29 H29           -0.8483    -4.8225    -0.0104 H       
  30 H30           -1.1482     3.1841     0.0248 H       
  31 H31           -2.3191     0.6613    -1.2326 H       
  32 H32           -3.0867     2.2672    -1.2203 H       
  33 H33           -1.5716     2.0119    -2.1188 H       
  34 H34           -2.3073     0.6477     1.2658 H       
  35 H35           -1.5513     1.9886     2.1595 H       
  36 H36           -3.0749     2.2536     1.2781 H       
  37 H37            3.4628     3.2574    -0.0152 H       
  38 H38            5.4363     2.3893     1.2097 H       
  39 H39            3.9350     2.0764     2.1134 H       
  40 H40            4.7200     0.7598     1.2087 H       
  41 H41            3.8916     2.0981    -2.1648 H       
  42 H42            5.4109     2.4019    -1.2886 H       
  43 H43            4.6947     0.7724    -1.2896 H       
  44 H44            1.1560     3.8337     0.8951 H       
  45 H45            1.5514    -6.5967     2.0890 H       
  46 H46            2.0751    -8.0366     1.1832 H       
  47 H47            3.0795    -6.5671     1.1768 H       
  48 H48           -0.6561    -6.6141    -0.9085 H       
  49 H49           -0.1063    -8.0641    -0.0345 H       
  50 H50           -0.6301    -6.6241     0.8713 H       
  51 H51            3.0431    -6.5531    -1.3214 H       
  52 H52            2.0387    -8.0226    -1.3150 H       
  53 H53            1.4889    -6.5727    -2.1889 H       
@<TRIPOS>BOND
   1    1    2 ar
   2    1    3 ar
   3    1   14 1
   4    2    6 ar
   5    2   24 1
   6    3    4 ar
   7    3   20 1
   8    4    5 ar
   9    4   17 1
  10    5    6 ar
  11    5   25 1
  12    6    7 1
  13    7    8 ar
  14    7    9 ar
  15    8   12 ar
  16    8   26 1
  17    9   10 ar
  18    9   27 1
  19   10   11 ar
  20   10   28 1
  21   11   12 ar
  22   11   13 1
  23   12   29 1
  24   13   21 1
  25   13   22 1
  26   13   23 1
  27   14   15 1
  28   14   16 1
  29   14   30 1
  30   15   31 1
  31   15   32 1
  32   15   33 1
  33   16   34 1
  34   16   35 1
  35   16   36 1
  36   17   18 1
  37   17   19 1
  38   17   37 1
  39   18   38 1
  40   18   39 1
  41   18   40 1
  42   19   41 1
  43   19   42 1
  44   19   43 1
  45   20   44 1
  46   21   45 1
  47   21   46 1
  48   21   47 1
  49   22   48 1
  50   22   49 1
  51   22   50 1
  52   23   51 1
  53   23   52 1
  54   23   53 1

#	End of record

