#	Name: ASD03330654
#	Creating user name:	WinNT
#	Creation time:	15. 06. 2019 20:37

#	Modifying user name:	WinNT
#	Modification time:	15. 06. 2019 20:37

#	Program:	/corina/corina34_cracker 3.40 0067  02.08.2006

@<TRIPOS>MOLECULE
ASD03330654
  60   62    0    0    0
SMALL
NO_CHARGES


@<TRIPOS>ATOM
   1 C1             0.1610     1.2201     0.7158 C.2     
   2 N2             0.2495    -0.1102     0.9860 N.pl3   
   3 C3             1.4334     1.6990     0.6368 C.2     
   4 N4             2.2783     0.6645     0.8399 N.2     
   5 C5             1.5768    -0.4288     1.0450 C.2     
   6 C6             2.1287    -1.7697     1.2967 C.2     
   7 C7             1.8199     3.0967     0.3755 C.2     
   8 O8             0.9631     3.9433     0.2071 O.2     
   9 C9             3.5072     4.8266     0.0632 C.3     
  10 N10            3.1230     3.4370     0.3230 N.am    
  11 C11            3.5328     5.0750    -1.4463 C.3     
  12 C12            2.1171     4.9369    -2.0099 C.3     
  13 C13            4.0562     6.4860    -1.7222 C.3     
  14 C14            4.4506     4.0505    -2.1163 C.3     
  15 C15            4.8761     5.0852     0.6381 C.2     
  16 N16            5.3594     6.3423     0.6885 N.am    
  17 O17            5.5429     4.1620     1.0553 O.2     
  18 C18            6.7207     6.5848     1.1723 C.3     
  19 C19           -0.8864    -1.0139     1.1875 C.3     
  20 C20           -1.9133    -0.7859     0.0739 C.3     
  21 C21           -2.8737     0.3279     0.4782 C.3     
  22 N22           -2.1936     1.3437     1.2840 N.3     
  23 C23           -1.1166     1.9958     0.5243 C.3     
  24 C24           -3.1489     2.3339     1.7986 C.3     
  25 O25            1.4486    -2.9313     1.2274 O.3     
  26 C26            2.2735    -3.9491     1.5192 C.2     
  27 C27            3.4992    -3.4515     1.7807 C.2     
  28 C28            3.4175    -2.0539     1.6347 C.2     
  29 C29            1.8928    -5.4069     1.5503 C.3     
  30 H30            2.7849     5.4966     0.5295 H       
  31 H31            3.8063     2.7618     0.4573 H       
  32 H32            1.4632     5.6668    -1.5326 H       
  33 H33            2.1352     5.1138    -3.0852 H       
  34 H34            1.7442     3.9317    -1.8133 H       
  35 H35            5.0170     6.6206    -1.2255 H       
  36 H36            4.1799     6.6240    -2.7963 H       
  37 H37            3.3444     7.2184    -1.3413 H       
  38 H38            4.0777     3.0453    -1.9197 H       
  39 H39            4.4688     4.2274    -3.1916 H       
  40 H40            5.4592     4.1488    -1.7147 H       
  41 H41            4.8058     7.0865     0.4046 H       
  42 H42            6.9325     7.6536     1.1408 H       
  43 H43            6.8112     6.2266     2.1978 H       
  44 H44            7.4315     6.0548     0.5382 H       
  45 H45           -0.5398    -2.0469     1.1576 H       
  46 H46           -1.3465    -0.8108     2.1545 H       
  47 H47           -1.3966    -0.5038    -0.8435 H       
  48 H48           -2.4746    -1.7049    -0.0953 H       
  49 H49           -3.2777     0.7952    -0.4199 H       
  50 H50           -3.6926    -0.0988     1.0574 H       
  51 H51           -0.9816     3.0153     0.8854 H       
  52 H52           -1.3766     2.0141    -0.5341 H       
  53 H53           -3.8910     1.8336     2.4207 H       
  54 H54           -2.6172     3.0766     2.3935 H       
  55 H55           -3.6471     2.8262     0.9635 H       
  56 H56            4.3787    -4.0186     2.0475 H       
  57 H57            4.2195    -1.3436     1.7713 H       
  58 H58            0.8377    -5.5123     1.2976 H       
  59 H59            2.4961    -5.9555     0.8270 H       
  60 H60            2.0690    -5.8073     2.5486 H       
@<TRIPOS>BOND
   1    1    2 1
   2    1    3 2
   3    1   23 1
   4    2   19 1
   5    2    5 1
   6    3    4 1
   7    3    7 1
   8    4    5 2
   9    5    6 1
  10    6   25 1
  11    6   28 2
  12    7    8 2
  13    7   10 am
  14    9   10 1
  15    9   11 1
  16    9   15 1
  17    9   30 1
  18   10   31 1
  19   11   12 1
  20   11   13 1
  21   11   14 1
  22   12   32 1
  23   12   33 1
  24   12   34 1
  25   13   35 1
  26   13   36 1
  27   13   37 1
  28   14   38 1
  29   14   39 1
  30   14   40 1
  31   15   16 am
  32   15   17 2
  33   16   18 1
  34   16   41 1
  35   18   42 1
  36   18   43 1
  37   18   44 1
  38   19   20 1
  39   19   45 1
  40   19   46 1
  41   20   21 1
  42   20   47 1
  43   20   48 1
  44   21   22 1
  45   21   49 1
  46   21   50 1
  47   22   23 1
  48   22   24 1
  49   23   51 1
  50   23   52 1
  51   24   53 1
  52   24   54 1
  53   24   55 1
  54   25   26 1
  55   26   27 2
  56   26   29 1
  57   27   28 1
  58   27   56 1
  59   28   57 1
  60   29   58 1
  61   29   59 1
  62   29   60 1

#	End of record

