#	Name: ASD03090965
#	Creating user name:	WinNT
#	Creation time:	15. 06. 2019 20:29

#	Modifying user name:	WinNT
#	Modification time:	15. 06. 2019 20:29

#	Program:	/corina/corina34_cracker 3.40 0067  02.08.2006

@<TRIPOS>MOLECULE
ASD03090965
  55   58    0    0    0
SMALL
NO_CHARGES


@<TRIPOS>ATOM
   1 N1            -0.0149     1.3421     0.1049 N.am    
   2 C2             0.0030    -0.0051     0.0720 C.2     
   3 O3            -1.0442    -0.6288     0.0749 O.2     
   4 N4             1.1687    -0.6570     0.0361 N.2     
   5 S5            -0.1729    -3.0447     0.0008 S.3     
   6 C6             1.1864    -1.9875     0.0036 C.2     
   7 N7             2.2793    -2.7909    -0.0347 N.pl3   
   8 C8             2.0560    -4.1338    -0.0638 C.2     
   9 C9             0.7906    -4.5309    -0.0520 C.2     
  10 O10            7.3995    -0.6836    -0.0827 O.3     
  11 C11            8.4608    -1.5246     0.3820 C.3     
  12 C12            8.2947    -2.9077    -0.2621 C.3     
  13 O13            7.0209    -3.4330     0.1269 O.3     
  14 C14            5.9571    -2.5888     0.0357 C.ar    
  15 C15            6.1456    -1.2151    -0.0670 C.ar    
  16 C16            4.6732    -3.1108     0.0454 C.ar    
  17 C17            3.5781    -2.2627    -0.0443 C.ar    
  18 C18            3.7693    -0.8916    -0.1440 C.ar    
  19 C19            5.0490    -0.3708    -0.1552 C.ar    
  20 F20            8.3509    -2.7894    -1.6549 F       
  21 F21            9.3119    -3.7598     0.1812 F       
  22 F22            9.6936    -0.9767     0.0118 F       
  23 F23            8.3948    -1.6417     1.7746 F       
  24 C24            0.2795    -5.9484    -0.0785 C.3     
  25 C25            1.2438     2.0918     0.1014 C.3     
  26 C26           -1.2932     2.0571     0.1381 C.3     
  27 C27           -1.7139     2.2677     1.5698 C.ar    
  28 C28           -1.3221     3.4089     2.2445 C.ar    
  29 C29           -1.7080     3.6021     3.5578 C.ar    
  30 C30           -2.4860     2.6544     4.1962 C.ar    
  31 C31           -2.8784     1.5137     3.5212 C.ar    
  32 C32           -2.4962     1.3225     2.2065 C.ar    
  33 C33           -2.9058     2.8645     5.6282 C.3     
  34 C34           -4.2402     3.6121     5.6640 C.3     
  35 H35            2.8708    -4.8420    -0.0950 H       
  36 H36            4.5248    -4.1777     0.1237 H       
  37 H37            2.9174    -0.2314    -0.2128 H       
  38 H38            5.1956     0.6964    -0.2325 H       
  39 H39           -0.8103    -5.9421    -0.0606 H       
  40 H40            0.6251    -6.4423    -0.9867 H       
  41 H41            0.6541    -6.4860     0.7925 H       
  42 H42            1.5382     2.3026    -0.9267 H       
  43 H43            1.1096     3.0296     0.6405 H       
  44 H44            2.0199     1.5009     0.5878 H       
  45 H45           -1.1819     3.0234    -0.3538 H       
  46 H46           -2.0512     1.4704    -0.3807 H       
  47 H47           -0.7143     4.1493     1.7458 H       
  48 H48           -1.4013     4.4933     4.0852 H       
  49 H49           -3.4860     0.7731     4.0200 H       
  50 H50           -2.8059     0.4331     1.6780 H       
  51 H51           -3.0175     1.8981     6.1197 H       
  52 H52           -2.1470     3.4504     6.1470 H       
  53 H53           -4.1285     4.5786     5.1725 H       
  54 H54           -4.9989     3.0262     5.1452 H       
  55 H55           -4.5439     3.7641     6.6997 H       
@<TRIPOS>BOND
   1    1    2 am
   2    1   25 1
   3    1   26 1
   4    2    3 2
   5    2    4 1
   6    4    6 2
   7    5    6 1
   8    5    9 1
   9    6    7 1
  10    7    8 1
  11    7   17 1
  12    8    9 2
  13    8   35 1
  14    9   24 1
  15   10   11 1
  16   10   15 1
  17   11   12 1
  18   11   22 1
  19   11   23 1
  20   12   13 1
  21   12   20 1
  22   12   21 1
  23   13   14 1
  24   14   15 ar
  25   14   16 ar
  26   15   19 ar
  27   16   17 ar
  28   16   36 1
  29   17   18 ar
  30   18   19 ar
  31   18   37 1
  32   19   38 1
  33   24   39 1
  34   24   40 1
  35   24   41 1
  36   25   42 1
  37   25   43 1
  38   25   44 1
  39   26   27 1
  40   26   45 1
  41   26   46 1
  42   27   28 ar
  43   27   32 ar
  44   28   29 ar
  45   28   47 1
  46   29   30 ar
  47   29   48 1
  48   30   31 ar
  49   30   33 1
  50   31   32 ar
  51   31   49 1
  52   32   50 1
  53   33   34 1
  54   33   51 1
  55   33   52 1
  56   34   53 1
  57   34   54 1
  58   34   55 1

#	End of record

