#	Name: ASD01914893
#	Creating user name:	WinNT
#	Creation time:	15. 06. 2019 20:04

#	Modifying user name:	WinNT
#	Modification time:	15. 06. 2019 20:04

#	Program:	/corina/corina34_cracker 3.40 0067  02.08.2006

@<TRIPOS>MOLECULE
ASD01914893
  41   43    0    0    0
SMALL
NO_CHARGES


@<TRIPOS>ATOM
   1 N1            -0.0178     1.4648     0.0101 N.3     
   2 C2             0.0021    -0.0041     0.0020 C.3     
   3 C3             0.6750    -0.4958    -1.2827 C.3     
   4 C4             1.0959     0.7200    -2.1177 C.3     
   5 C5             2.0575     1.5766    -1.2844 C.3     
   6 C6             1.3461     2.0114     0.0000 C.3     
   7 C7            -0.8025     1.9884    -1.1166 C.3     
   8 C8            -0.1530     1.5529    -2.4331 C.3     
   9 N9             3.8417    -1.9514    -0.1483 N.pl3   
  10 N10            2.9310    -0.8930    -0.2606 N.2     
  11 C11            1.8913    -1.3146    -0.9342 C.2     
  12 C12            2.1015    -2.6571    -1.2757 C.2     
  13 C13            3.3083    -3.0286    -0.7819 C.2     
  14 O14            1.2450    -3.4490    -1.9794 O.3     
  15 C15            1.6561    -4.7963    -2.2196 C.3     
  16 C16            0.5734    -5.5252    -3.0180 C.3     
  17 C17            1.0136    -6.9678    -3.2752 C.3     
  18 C18           -0.0690    -7.6967    -4.0736 C.3     
  19 H19            0.5602    -0.3649     0.8660 H       
  20 H20           -1.0195    -0.3818     0.0450 H       
  21 H21           -0.0267    -1.1050    -1.8525 H       
  22 H22            1.5845     0.3934    -3.0357 H       
  23 H23            2.9421     0.9918    -1.0318 H       
  24 H24            2.3506     2.4574    -1.8557 H       
  25 H25            1.3021     3.0998     0.0408 H       
  26 H26            1.8945     1.6366     0.8643 H       
  27 H27           -1.8185     1.5969    -1.0653 H       
  28 H28           -0.8289     3.0769    -1.0667 H       
  29 H29            0.1312     2.4336    -3.0090 H       
  30 H30           -0.8580     0.9511    -3.0066 H       
  31 H31            4.7020    -1.9198     0.2987 H       
  32 H32            3.7633    -4.0036    -0.8755 H       
  33 H33            2.5874    -4.7965    -2.7860 H       
  34 H34            1.8097    -5.3045    -1.2677 H       
  35 H35           -0.3579    -5.5250    -2.4516 H       
  36 H36            0.4198    -5.0170    -3.9700 H       
  37 H37            1.9449    -6.9680    -3.8416 H       
  38 H38            1.1672    -7.4760    -2.3233 H       
  39 H39            0.2446    -8.7244    -4.2569 H       
  40 H40           -1.0003    -7.6965    -3.5073 H       
  41 H41           -0.2226    -7.1885    -5.0256 H       
@<TRIPOS>BOND
   1    1    2 1
   2    1    6 1
   3    1    7 1
   4    2    3 1
   5    2   19 1
   6    2   20 1
   7    3    4 1
   8    3   11 1
   9    3   21 1
  10    4    5 1
  11    4    8 1
  12    4   22 1
  13    5    6 1
  14    5   23 1
  15    5   24 1
  16    6   25 1
  17    6   26 1
  18    7    8 1
  19    7   27 1
  20    7   28 1
  21    8   29 1
  22    8   30 1
  23    9   10 1
  24    9   13 1
  25    9   31 1
  26   10   11 2
  27   11   12 1
  28   12   13 2
  29   12   14 1
  30   13   32 1
  31   14   15 1
  32   15   16 1
  33   15   33 1
  34   15   34 1
  35   16   17 1
  36   16   35 1
  37   16   36 1
  38   17   18 1
  39   17   37 1
  40   17   38 1
  41   18   39 1
  42   18   40 1
  43   18   41 1

#	End of record

