#	Name: ASD03091146
#	Creating user name:	WinNT
#	Creation time:	15. 06. 2019 20:30

#	Modifying user name:	WinNT
#	Modification time:	15. 06. 2019 20:30

#	Program:	/corina/corina34_cracker 3.40 0067  02.08.2006

@<TRIPOS>MOLECULE
ASD03091146
  16   16    0    0    0
SMALL
NO_CHARGES


@<TRIPOS>ATOM
   1 C1            -0.0416     1.4275    -0.5283 C.2     
   2 C2            -0.0093    -0.0276    -0.2570 C.ar    
   3 C3             1.2060    -0.7059    -0.1178 C.ar    
   4 C4             1.1906    -2.0638     0.1348 C.ar    
   5 N5             0.0523    -2.7195     0.2443 N.ar    
   6 C6            -1.1158    -2.1193     0.1201 C.ar    
   7 C7            -1.1928    -0.7607    -0.1272 C.ar    
   8 O8             0.5307     1.8768    -1.5004 O.2     
   9 O9            -0.7104     2.2522     0.3001 O.3     
  10 N10            2.4898     0.0207    -0.2399 N.pl3   
  11 O11            3.5400    -0.5962    -0.2521 O.2     
  12 O12            2.4961     1.2355    -0.3282 O.2     
  13 Cl13          -2.5757    -3.0456     0.2764 Cl      
  14 H14            2.1241    -2.5958     0.2437 H       
  15 H15           -2.1523    -0.2743    -0.2228 H       
  16 H16           -0.7032     3.1942     0.0819 H       
@<TRIPOS>BOND
   1    1    2 1
   2    1    8 2
   3    1    9 1
   4    2    3 ar
   5    2    7 ar
   6    3    4 ar
   7    3   10 1
   8    4    5 ar
   9    4   14 1
  10    5    6 ar
  11    6    7 ar
  12    6   13 1
  13    7   15 1
  14    9   16 1
  15   10   11 2
  16   10   12 2

#	End of record

