#	Name: ASD03731338
#	Creating user name:	WinNT
#	Creation time:	15. 06. 2019 20:45

#	Modifying user name:	WinNT
#	Modification time:	15. 06. 2019 20:45

#	Program:	/corina/corina34_cracker 3.40 0067  02.08.2006

@<TRIPOS>MOLECULE
ASD03731338
  61   67    0    0    0
SMALL
NO_CHARGES


@<TRIPOS>ATOM
   1 C1            -0.0180     1.4738     0.0101 C.2     
   2 C2             0.0021    -0.0041     0.0020 C.ar    
   3 C3             1.2186    -0.6886    -0.0133 C.ar    
   4 C4             1.2302    -2.0681    -0.0208 C.ar    
   5 C5             0.0396    -2.7730    -0.0133 C.ar    
   6 C6            -1.1696    -2.1007     0.0019 C.ar    
   7 C7            -1.1953    -0.7215     0.0154 C.ar    
   8 O8             1.0263     2.0958     0.0035 O.2     
   9 N9            -1.1942     2.1318     0.0193 N.am    
  10 C10            0.0601    -4.2799    -0.0221 C.3     
  11 O11           -2.0565    -1.5352     6.2769 O.3     
  12 C12           -2.2839    -1.6207     7.6961 C.3     
  13 O13           -2.7821    -2.9586     7.8829 O.3     
  14 C14           -2.2566    -3.6912     6.8572 C.ar    
  15 C15           -1.8115    -2.8154     5.8696 C.ar    
  16 C16           -2.1188    -5.0567     6.6840 C.ar    
  17 C17           -1.5386    -5.5655     5.5259 C.ar    
  18 C18           -1.1054    -4.6811     4.5428 C.ar    
  19 C19           -1.2358    -3.3188     4.7152 C.ar    
  20 O20           -1.2957    -6.8591     5.1684 O.3     
  21 C21           -0.5595    -5.5218     3.4199 C.3     
  22 C22           -1.0842    -6.9270     3.7450 C.3     
  23 N23            0.0801    -4.7761     1.3561 N.am    
  24 C24           -1.0278    -5.0466     2.0747 C.2     
  25 C25            0.9386    -5.4850     3.3553 C.ar    
  26 C26            1.9374    -5.7967     4.2506 C.ar    
  27 C27            3.2643    -5.6551     3.8853 C.ar    
  28 C28            3.5849    -5.1992     2.6195 C.ar    
  29 C29            2.5881    -4.8848     1.7196 C.ar    
  30 C30            1.2497    -5.0247     2.0785 C.ar    
  31 O31           -2.1776    -4.9296     1.7067 O.2     
  32 C32           -1.2131     3.5248     0.0270 C.ar    
  33 C33           -2.4303     4.1973     0.0364 C.ar    
  34 C34           -2.4346     5.5807     0.0444 C.ar    
  35 C35           -1.2164     6.2470     0.0427 C.ar    
  36 C36           -0.0457     5.5152     0.0331 C.ar    
  37 N37           -0.0723     4.1961     0.0307 N.ar    
  38 C38           -3.7270     3.4295     0.0374 C.3     
  39 H39            2.1485    -0.1395    -0.0195 H       
  40 H40            2.1706    -2.5989    -0.0330 H       
  41 H41           -2.0953    -2.6570     0.0073 H       
  42 H42           -2.1398    -0.1979     0.0317 H       
  43 H43           -2.0276     1.6354     0.0206 H       
  44 H44           -0.8299    -4.6523    -0.5295 H       
  45 H45            0.9498    -4.6281    -0.5467 H       
  46 H46           -1.3514    -1.4795     8.2425 H       
  47 H47           -3.0274    -0.8880     8.0096 H       
  48 H48           -2.4638    -5.7324     7.4526 H       
  49 H49           -0.8882    -2.6431     3.9477 H       
  50 H50           -0.3398    -7.6845     3.4998 H       
  51 H51           -2.0215    -7.1205     3.2232 H       
  52 H52            1.6848    -6.1523     5.2385 H       
  53 H53            4.0480    -5.9003     4.5869 H       
  54 H54            4.6207    -5.0886     2.3345 H       
  55 H55            2.8463    -4.5289     0.7332 H       
  56 H56           -3.3644     6.1300     0.0514 H       
  57 H57           -1.1850     7.3265     0.0484 H       
  58 H58            0.9042     6.0291     0.0314 H       
  59 H59           -4.0352     3.2381     1.0652 H       
  60 H60           -4.4953     4.0133    -0.4695 H       
  61 H61           -3.5885     2.4817    -0.4829 H       
@<TRIPOS>BOND
   1    1    2 1
   2    1    8 2
   3    1    9 am
   4    2    3 ar
   5    2    7 ar
   6    3    4 ar
   7    3   39 1
   8    4    5 ar
   9    4   40 1
  10    5    6 ar
  11    5   10 1
  12    6    7 ar
  13    6   41 1
  14    7   42 1
  15    9   32 1
  16    9   43 1
  17   10   23 1
  18   10   44 1
  19   10   45 1
  20   11   12 1
  21   11   15 1
  22   12   13 1
  23   12   46 1
  24   12   47 1
  25   13   14 1
  26   14   15 ar
  27   14   16 ar
  28   15   19 ar
  29   16   17 ar
  30   16   48 1
  31   17   18 ar
  32   17   20 1
  33   18   19 ar
  34   18   21 1
  35   19   49 1
  36   20   22 1
  37   21   22 1
  38   21   24 1
  39   21   25 1
  40   22   50 1
  41   22   51 1
  42   23   24 am
  43   23   30 1
  44   24   31 2
  45   25   26 ar
  46   25   30 ar
  47   26   27 ar
  48   26   52 1
  49   27   28 ar
  50   27   53 1
  51   28   29 ar
  52   28   54 1
  53   29   30 ar
  54   29   55 1
  55   32   33 ar
  56   32   37 ar
  57   33   34 ar
  58   33   38 1
  59   34   35 ar
  60   34   56 1
  61   35   36 ar
  62   35   57 1
  63   36   37 ar
  64   36   58 1
  65   38   59 1
  66   38   60 1
  67   38   61 1

#	End of record

