#	Name: ASD00069131
#	Creating user name:	WinNT
#	Creation time:	15. 06. 2019 18:29

#	Modifying user name:	WinNT
#	Modification time:	15. 06. 2019 18:29

#	Program:	/corina/corina34_cracker 3.40 0067  02.08.2006

@<TRIPOS>MOLECULE
ASD00069131
  54   57    0    0    0
SMALL
NO_CHARGES


@<TRIPOS>ATOM
   1 C1            -0.0972     1.1981    -0.5382 C.2     
   2 N2             0.0007    -0.0058    -0.0196 N.2     
   3 C3             1.2450    -0.4623    -0.2085 C.2     
   4 C4             1.9522     0.5001    -0.8739 C.2     
   5 N5             1.1116     1.5384    -1.0796 N.pl3   
   6 C6            -1.3087     2.0381    -0.5413 C.2     
   7 O7            -1.2827     3.1411    -1.0532 O.2     
   8 N8            -2.4451     1.5838     0.0232 N.am    
   9 C9             1.4743    -3.9097     1.2932 C.ar    
  10 C10            0.9461    -2.6858     0.9029 C.ar    
  11 C11            1.7654    -1.7811     0.2282 C.ar    
  12 C12            3.0917    -2.1502    -0.0268 C.ar    
  13 C13            3.5386    -3.3835     0.3937 C.ar    
  14 N14            2.7359    -4.2165     1.0304 N.ar    
  15 N15            0.6720    -4.8201     1.9718 N.pl3   
  16 C16           -3.5605     2.4245     0.1262 C.ar    
  17 C17           -4.8463     1.8958     0.0209 C.ar    
  18 C18           -5.9478     2.7348     0.1244 C.ar    
  19 C19           -5.7664     4.0914     0.3316 C.ar    
  20 C20           -4.4905     4.6141     0.4353 C.ar    
  21 C21           -3.3890     3.7845     0.3391 C.ar    
  22 F22           -7.1958     2.2276     0.0226 F       
  23 N23           -5.0263     0.5226    -0.1892 N.3     
  24 C24           -5.7972    -0.0806     0.9054 C.3     
  25 C25           -5.8496    -1.5986     0.7182 C.3     
  26 C26           -6.5033    -1.9195    -0.6287 C.3     
  27 C27           -5.7091    -1.2398    -1.7475 C.3     
  28 C28           -5.6608     0.2678    -1.4888 C.3     
  29 C29           -6.5036    -3.4336    -0.8491 C.3     
  30 N30           -7.2362    -3.7487    -2.0827 N.3     
  31 H31            2.9871     0.4420    -1.1772 H       
  32 H32            1.3261     2.3711    -1.5285 H       
  33 H33           -2.4905     0.6746     0.3582 H       
  34 H34           -0.0830    -2.4388     1.1184 H       
  35 H35            3.7561    -1.4763    -0.5472 H       
  36 H36            4.5607    -3.6735     0.1997 H       
  37 H37           -0.2514    -4.5991     2.1704 H       
  38 H38            1.0357    -5.6763     2.2467 H       
  39 H39           -6.6237     4.7433     0.4120 H       
  40 H40           -4.3542     5.6733     0.5963 H       
  41 H41           -2.3942     4.1961     0.4252 H       
  42 H42           -5.3194     0.1517     1.8572 H       
  43 H43           -6.8105     0.3211     0.9004 H       
  44 H44           -4.8374    -2.0027     0.7369 H       
  45 H45           -6.4350    -2.0445     1.5223 H       
  46 H46           -7.5286    -1.5497    -0.6333 H       
  47 H47           -4.6947    -1.6382    -1.7676 H       
  48 H48           -6.1942    -1.4293    -2.7051 H       
  49 H49           -6.6747     0.6679    -1.4826 H       
  50 H50           -5.0839     0.7531    -2.2760 H       
  51 H51           -5.4766    -3.7883    -0.9357 H       
  52 H52           -6.9872    -3.9236    -0.0040 H       
  53 H53           -6.8461    -3.2546    -2.8712 H       
  54 H54           -7.2506    -4.7436    -2.2506 H       
@<TRIPOS>BOND
   1    1    2 2
   2    1    5 1
   3    1    6 1
   4    2    3 1
   5    3    4 2
   6    3   11 1
   7    4    5 1
   8    4   31 1
   9    5   32 1
  10    6    7 2
  11    6    8 am
  12    8   16 1
  13    8   33 1
  14    9   10 ar
  15    9   14 ar
  16    9   15 1
  17   10   11 ar
  18   10   34 1
  19   11   12 ar
  20   12   13 ar
  21   12   35 1
  22   13   14 ar
  23   13   36 1
  24   15   37 1
  25   15   38 1
  26   16   17 ar
  27   16   21 ar
  28   17   18 ar
  29   17   23 1
  30   18   19 ar
  31   18   22 1
  32   19   20 ar
  33   19   39 1
  34   20   21 ar
  35   20   40 1
  36   21   41 1
  37   23   24 1
  38   23   28 1
  39   24   25 1
  40   24   42 1
  41   24   43 1
  42   25   26 1
  43   25   44 1
  44   25   45 1
  45   26   27 1
  46   26   29 1
  47   26   46 1
  48   27   28 1
  49   27   47 1
  50   27   48 1
  51   28   49 1
  52   28   50 1
  53   29   30 1
  54   29   51 1
  55   29   52 1
  56   30   53 1
  57   30   54 1

#	End of record

