#	Name: ASD02198540
#	Creating user name:	WinNT
#	Creation time:	15. 06. 2019 20:19

#	Modifying user name:	WinNT
#	Modification time:	15. 06. 2019 20:19

#	Program:	/corina/corina34_cracker 3.40 0067  02.08.2006

@<TRIPOS>MOLECULE
ASD02198540
  50   53    0    0    0
SMALL
NO_CHARGES


@<TRIPOS>ATOM
   1 C1             0.8307    -0.4286    -1.5670 C.2     
   2 C2            -0.0229    -0.2119    -0.5345 C.2     
   3 N3             0.3237     0.5957     0.4925 N.pl3   
   4 N4             1.4524     1.1990     0.5635 N.2     
   5 C5             2.3700     1.0761    -0.3687 C.2     
   6 C6             2.0893     0.2175    -1.5299 C.2     
   7 C7            -0.5959     0.7828     1.5298 C.ar    
   8 C8            -2.7886     0.4592     2.4455 C.ar    
   9 C9            -2.4152     1.1537     3.5814 C.ar    
  10 C10           -1.1360     1.6680     3.6922 C.ar    
  11 C11           -0.2256     1.4847     2.6703 C.ar    
  12 C12            3.6635     1.7894    -0.2529 C.2     
  13 C13            4.9399     1.1920    -0.0931 C.2     
  14 N14            5.8306     2.1572    -0.0308 N.2     
  15 N15            5.1646     3.3830    -0.1466 N.pl3   
  16 C16            3.8456     3.1407    -0.2863 C.2     
  17 C17            5.2199    -0.2620    -0.0111 C.ar    
  18 C18            4.3322    -1.1091     0.6500 C.ar    
  19 O19            2.9082     0.0687    -2.4249 O.2     
  20 C20            6.3689    -0.7874    -0.5997 C.ar    
  21 C21            6.6241    -2.1413    -0.5206 C.ar    
  22 C22            5.7420    -2.9766     0.1409 C.ar    
  23 C23            4.5977    -2.4614     0.7228 C.ar    
  24 C24           -1.8829     0.2722     1.4196 C.ar    
  25 F25           -4.8710     0.1096     3.5295 F       
  26 F26           -4.8584     0.5464     1.2872 F       
  27 C27           -4.1836    -0.0988     2.3290 C.3     
  28 F28           -4.1164    -1.4705     2.0623 F       
  29 C29            5.7948     4.7054    -0.1252 C.3     
  30 C30            6.0559     5.1692    -1.5596 C.3     
  31 C31            4.8661     5.7017     0.5719 C.3     
  32 H32            0.5602    -1.0764    -2.3878 H       
  33 H33           -0.9912    -0.6902    -0.5336 H       
  34 H34           -3.1242     1.2953     4.3837 H       
  35 H35           -0.8478     2.2105     4.5804 H       
  36 H36            0.7732     1.8862     2.7576 H       
  37 H37            3.0705     3.8844    -0.3982 H       
  38 H38            3.4385    -0.7079     1.1047 H       
  39 H39            7.0579    -0.1362    -1.1170 H       
  40 H40            7.5141    -2.5496    -0.9763 H       
  41 H41            5.9456    -4.0356     0.2001 H       
  42 H42            3.9125    -3.1182     1.2381 H       
  43 H43           -2.1753    -0.2700     0.5325 H       
  44 H44            6.7392     4.6490     0.4160 H       
  45 H45            5.1114     5.2255    -2.1009 H       
  46 H46            6.5248     6.1530    -1.5437 H       
  47 H47            6.7175     4.4594    -2.0563 H       
  48 H48            4.6801     5.3712     1.5938 H       
  49 H49            5.3350     6.6855     0.5878 H       
  50 H50            3.9217     5.7580     0.0306 H       
@<TRIPOS>BOND
   1    1    2 2
   2    1    6 1
   3    1   32 1
   4    2    3 1
   5    2   33 1
   6    3    4 1
   7    3    7 1
   8    4    5 2
   9    5    6 1
  10    5   12 1
  11    6   19 2
  12    7   24 ar
  13    7   11 ar
  14    8    9 ar
  15    8   27 1
  16    8   24 ar
  17    9   10 ar
  18    9   34 1
  19   10   11 ar
  20   10   35 1
  21   11   36 1
  22   12   13 1
  23   12   16 2
  24   13   14 2
  25   13   17 1
  26   14   15 1
  27   15   16 1
  28   15   29 1
  29   16   37 1
  30   17   20 ar
  31   17   18 ar
  32   18   23 ar
  33   18   38 1
  34   20   21 ar
  35   20   39 1
  36   21   22 ar
  37   21   40 1
  38   22   23 ar
  39   22   41 1
  40   23   42 1
  41   24   43 1
  42   25   27 1
  43   26   27 1
  44   27   28 1
  45   29   30 1
  46   29   31 1
  47   29   44 1
  48   30   45 1
  49   30   46 1
  50   30   47 1
  51   31   48 1
  52   31   49 1
  53   31   50 1

#	End of record

