#	Name: ASD01885542
#	Creating user name:	WinNT
#	Creation time:	15. 06. 2019 19:49

#	Modifying user name:	WinNT
#	Modification time:	15. 06. 2019 19:49

#	Program:	/corina/corina34_cracker 3.40 0067  02.08.2006

@<TRIPOS>MOLECULE
ASD01885542
  52   56    0    0    0
SMALL
NO_CHARGES


@<TRIPOS>ATOM
   1 C1            -0.0168     1.3903     0.0097 C.ar    
   2 C2             0.0021    -0.0041     0.0020 C.ar    
   3 C3            -1.1851    -0.7074     0.0101 C.ar    
   4 C4            -2.3923    -0.0321     0.0257 C.ar    
   5 C5            -2.4175     1.3511     0.0334 C.ar    
   6 C6            -1.2368     2.0654     0.0308 C.ar    
   7 C7             1.2545     2.1515     0.0016 C.2     
   8 C8             2.1440     2.0697     1.1005 C.2     
   9 C9             3.2984     2.7619     1.0915 C.2     
  10 N10            3.6327     3.5518     0.0289 N.pl3   
  11 C11            2.7983     3.6587    -1.0572 C.2     
  12 C12            1.5869     2.9444    -1.0816 C.2     
  13 C13            4.7048     4.3438    -0.2469 C.2     
  14 N14            4.5065     4.8800    -1.4237 N.2     
  15 N15            3.3843     4.4830    -1.9119 N.2     
  16 C16            5.9020     4.5635     0.6417 C.3     
  17 N17            6.9307     3.5611     0.3339 N.3     
  18 Cl18           0.5195     3.0659    -2.4453 Cl      
  19 C19            8.1965     3.8827     1.0054 C.3     
  20 C20            9.2808     2.9040     0.5488 C.3     
  21 C21            8.8487     1.4754     0.8906 C.3     
  22 C22            7.5045     1.1824     0.2185 C.3     
  23 C23            6.4717     2.2110     0.6847 C.3     
  24 C24            9.8848     0.5024     0.3898 C.ar    
  25 C25           10.5346    -0.3337     1.2784 C.ar    
  26 C26           11.4850    -1.2261     0.8190 C.ar    
  27 C27           11.7854    -1.2828    -0.5291 C.ar    
  28 C28           11.1350    -0.4474    -1.4179 C.ar    
  29 C29           10.1814     0.4421    -0.9590 C.ar    
  30 H30            0.9440    -0.5324    -0.0105 H       
  31 H31           -1.1717    -1.7873     0.0038 H       
  32 H32           -3.3189    -0.5868     0.0316 H       
  33 H33           -3.3630     1.8729     0.0452 H       
  34 H34           -1.2577     3.1452     0.0368 H       
  35 H35            1.8950     1.4499     1.9492 H       
  36 H36            3.9686     2.6919     1.9354 H       
  37 H37            6.3042     5.5618     0.4692 H       
  38 H38            5.6022     4.4679     1.6853 H       
  39 H39            8.4946     4.8997     0.7506 H       
  40 H40            8.0658     3.8023     2.0845 H       
  41 H41            9.4217     2.9937    -0.5283 H       
  42 H42           10.2162     3.1332     1.0591 H       
  43 H43            8.7453     1.3747     1.9710 H       
  44 H44            7.6175     1.2450    -0.8638 H       
  45 H45            7.1708     0.1817     0.4929 H       
  46 H46            6.3490     2.1385     1.7653 H       
  47 H47            5.5170     2.0139     0.1969 H       
  48 H48           10.2999    -0.2894     2.3317 H       
  49 H49           11.9932    -1.8788     1.5134 H       
  50 H50           12.5285    -1.9796    -0.8880 H       
  51 H51           11.3699    -0.4914    -2.4711 H       
  52 H52            9.6733     1.0948    -1.6534 H       
@<TRIPOS>BOND
   1    1    2 ar
   2    1    7 1
   3    1    6 ar
   4    2    3 ar
   5    2   30 1
   6    3    4 ar
   7    3   31 1
   8    4    5 ar
   9    4   32 1
  10    5    6 ar
  11    5   33 1
  12    6   34 1
  13    7    8 1
  14    7   12 2
  15    8    9 2
  16    8   35 1
  17    9   10 1
  18    9   36 1
  19   10   11 1
  20   10   13 1
  21   11   12 1
  22   11   15 2
  23   12   18 1
  24   13   14 2
  25   13   16 1
  26   14   15 1
  27   16   17 1
  28   16   37 1
  29   16   38 1
  30   17   19 1
  31   17   23 1
  32   19   20 1
  33   19   39 1
  34   19   40 1
  35   20   21 1
  36   20   41 1
  37   20   42 1
  38   21   22 1
  39   21   24 1
  40   21   43 1
  41   22   23 1
  42   22   44 1
  43   22   45 1
  44   23   46 1
  45   23   47 1
  46   24   25 ar
  47   24   29 ar
  48   25   26 ar
  49   25   48 1
  50   26   27 ar
  51   26   49 1
  52   27   28 ar
  53   27   50 1
  54   28   29 ar
  55   28   51 1
  56   29   52 1

#	End of record

