#	Name: ASD02038981
#	Creating user name:	WinNT
#	Creation time:	15. 06. 2019 20:17

#	Modifying user name:	WinNT
#	Modification time:	15. 06. 2019 20:17

#	Program:	/corina/corina34_cracker 3.40 0067  02.08.2006

@<TRIPOS>MOLECULE
ASD02038981
  47   49    0    0    0
SMALL
NO_CHARGES


@<TRIPOS>ATOM
   1 C1             0.3223     1.1863    -1.0933 C.2     
   2 N2             0.3975    -0.1591    -1.1194 N.am    
   3 O3             0.3027     1.8140    -2.1337 O.2     
   4 O4             0.2633     1.8347     0.0854 O.3     
   5 C5             0.2196     3.1933     0.0413 C.ar    
   6 C6            -0.9798     3.8405    -0.2160 C.ar    
   7 C7            -1.0243     5.2203    -0.2608 C.ar    
   8 C8             0.1306     5.9586    -0.0485 C.ar    
   9 C9             1.3301     5.3113     0.2089 C.ar    
  10 C10            1.3733     3.9317     0.2593 C.ar    
  11 O11            0.0870     7.3168    -0.0930 O.3     
  12 C12            1.3139     8.0131     0.1349 C.3     
  13 O13            1.1589    10.2544    -1.0643 O.3     
  14 C14            1.0725     9.4981     0.0473 C.2     
  15 N15            0.7425    10.2824     1.0313 N.2     
  16 N16            0.6174    11.4873     0.5980 N.2     
  17 C17            0.8655    11.5132    -0.6888 C.2     
  18 N18            0.8318    12.6271    -1.5086 N.pl3   
  19 C19            0.6304    13.8959    -0.9564 C.ar    
  20 C20            1.0660    14.1702     0.3338 C.ar    
  21 C21            0.8660    15.4250     0.8768 C.ar    
  22 C22            0.2318    16.4084     0.1353 C.ar    
  23 C23           -0.2027    16.1369    -1.1497 C.ar    
  24 C24           -0.0004    14.8856    -1.6989 C.ar    
  25 Cl25          -0.0187    17.9838     0.8200 Cl      
  26 Cl26           1.4094    15.7692     2.4893 Cl      
  27 C27            0.4556    -0.8648    -2.4019 C.3     
  28 C28            1.9053    -0.9207    -2.8880 C.3     
  29 C29           -0.0785    -2.2877    -2.2257 C.3     
  30 H30            0.4132    -0.6602    -0.2890 H       
  31 H31           -1.8790     3.2657    -0.3817 H       
  32 H32           -1.9581     5.7243    -0.4616 H       
  33 H33            2.2294     5.8861     0.3739 H       
  34 H34            2.3063     3.4277     0.4640 H       
  35 H35            1.6940     7.7647     1.1258 H       
  36 H36            2.0442     7.7187    -0.6188 H       
  37 H37            0.9478    12.5280    -2.4666 H       
  38 H38            1.5602    13.4034     0.9120 H       
  39 H39           -0.6972    16.9052    -1.7255 H       
  40 H40           -0.3360    14.6760    -2.7038 H       
  41 H41           -0.1534    -0.3364    -3.1353 H       
  42 H42            2.5143    -1.4492    -2.1546 H       
  43 H43            1.9485    -1.4458    -3.8422 H       
  44 H44            2.2858     0.0929    -3.0135 H       
  45 H45           -1.1112    -2.2479    -1.8794 H       
  46 H46           -0.0352    -2.8128    -3.1799 H       
  47 H47            0.5306    -2.8162    -1.4923 H       
@<TRIPOS>BOND
   1    1    2 am
   2    1    3 2
   3    1    4 1
   4    2   27 1
   5    2   30 1
   6    4    5 1
   7    5    6 ar
   8    5   10 ar
   9    6    7 ar
  10    6   31 1
  11    7    8 ar
  12    7   32 1
  13    8    9 ar
  14    8   11 1
  15    9   10 ar
  16    9   33 1
  17   10   34 1
  18   11   12 1
  19   12   14 1
  20   12   35 1
  21   12   36 1
  22   13   14 1
  23   13   17 1
  24   14   15 2
  25   15   16 1
  26   16   17 2
  27   17   18 1
  28   18   19 1
  29   18   37 1
  30   19   20 ar
  31   19   24 ar
  32   20   21 ar
  33   20   38 1
  34   21   22 ar
  35   21   26 1
  36   22   23 ar
  37   22   25 1
  38   23   24 ar
  39   23   39 1
  40   24   40 1
  41   27   28 1
  42   27   29 1
  43   27   41 1
  44   28   42 1
  45   28   43 1
  46   28   44 1
  47   29   45 1
  48   29   46 1
  49   29   47 1

#	End of record

