#	Name: ASD05398001
#	Creating user name:	WinNT
#	Creation time:	15. 06. 2019 20:59

#	Modifying user name:	WinNT
#	Modification time:	15. 06. 2019 20:59

#	Program:	/corina/corina34_cracker 3.40 0067  02.08.2006

@<TRIPOS>MOLECULE
ASD05398001
  51   54    0    0    0
SMALL
NO_CHARGES


@<TRIPOS>ATOM
   1 C1            -0.2997     1.0912     0.3466 C.2     
   2 C2            -0.3584    -0.2689     0.2906 C.2     
   3 C3             0.8353    -1.0153     0.2571 C.2     
   4 C4             2.1074    -0.2642     0.2852 C.ar    
   5 C5             3.3367    -0.9193     0.2549 C.ar    
   6 C6             4.5009    -0.1824     0.2822 C.ar    
   7 C7             4.4509     1.2024     0.3395 C.ar    
   8 C8             3.2401     1.8615     0.3700 C.ar    
   9 C9             2.0555     1.1364     0.3432 C.ar    
  10 O10            0.8597     1.7622     0.3717 O.3     
  11 O11            0.8197    -2.2347     0.2072 O.2     
  12 C12            3.2021     3.3667     0.4327 C.3     
  13 C13            3.1209     3.9344    -0.9857 C.3     
  14 N14            4.4168     3.8591     1.0871 N.pl3   
  15 C15            4.4074     5.0945     1.7386 C.ar    
  16 C16            5.5584     5.5628     2.3596 C.ar    
  17 C17            5.5457     6.7850     3.0025 C.ar    
  18 C18            4.3889     7.5423     3.0286 C.ar    
  19 C19            3.2414     7.0791     2.4115 C.ar    
  20 C20            3.2486     5.8602     1.7623 C.ar    
  21 N21           -1.4725     1.8009     0.3727 N.pl3   
  22 C22           -2.6782     1.2483     1.0102 C.3     
  23 C23           -3.2386     2.2983     1.9764 C.3     
  24 O24           -3.3985     3.5382     1.2830 O.3     
  25 C25           -2.1773     4.0957     0.7914 C.3     
  26 C26           -1.5610     3.1401    -0.2305 C.3     
  27 C27            5.8341    -0.8844     0.2502 C.3     
  28 H28           -1.3143    -0.7714     0.2724 H       
  29 H29            3.3768    -1.9977     0.2106 H       
  30 H30            5.3693     1.7701     0.3609 H       
  31 H31            2.3285     3.6846     1.0019 H       
  32 H32            3.9945     3.6165    -1.5548 H       
  33 H33            2.2171     3.5681    -1.4725 H       
  34 H34            3.0934     5.0231    -0.9403 H       
  35 H35            5.2277     3.3271     1.0678 H       
  36 H36            6.4620     4.9717     2.3398 H       
  37 H37            6.4401     7.1496     3.4858 H       
  38 H38            4.3816     8.4976     3.5324 H       
  39 H39            2.3396     7.6730     2.4338 H       
  40 H40            2.3533     5.5010     1.2767 H       
  41 H41           -3.4225     1.0160     0.2485 H       
  42 H42           -2.4206     0.3434     1.5605 H       
  43 H43           -4.2050     1.9656     2.3550 H       
  44 H44           -2.5475     2.4330     2.8085 H       
  45 H45           -2.3803     5.0561     0.3175 H       
  46 H46           -1.4824     4.2369     1.6192 H       
  47 H47           -0.5640     3.4874    -0.5014 H       
  48 H48           -2.1909     3.1015    -1.1193 H       
  49 H49            6.1530    -1.0115    -0.7843 H       
  50 H50            6.5717    -0.2879     0.7871 H       
  51 H51            5.7418    -1.8613     0.7246 H       
@<TRIPOS>BOND
   1    1    2 2
   2    1   10 1
   3    1   21 1
   4    2    3 1
   5    2   28 1
   6    3    4 1
   7    3   11 2
   8    4    5 ar
   9    4    9 ar
  10    5    6 ar
  11    5   29 1
  12    6    7 ar
  13    6   27 1
  14    7    8 ar
  15    7   30 1
  16    8    9 ar
  17    8   12 1
  18    9   10 1
  19   12   13 1
  20   12   14 1
  21   12   31 1
  22   13   32 1
  23   13   33 1
  24   13   34 1
  25   14   15 1
  26   14   35 1
  27   15   16 ar
  28   15   20 ar
  29   16   17 ar
  30   16   36 1
  31   17   18 ar
  32   17   37 1
  33   18   19 ar
  34   18   38 1
  35   19   20 ar
  36   19   39 1
  37   20   40 1
  38   21   22 1
  39   21   26 1
  40   22   23 1
  41   22   41 1
  42   22   42 1
  43   23   24 1
  44   23   43 1
  45   23   44 1
  46   24   25 1
  47   25   26 1
  48   25   45 1
  49   25   46 1
  50   26   47 1
  51   26   48 1
  52   27   49 1
  53   27   50 1
  54   27   51 1

#	End of record

