#	Name: ASD02508388
#	Creating user name:	WinNT
#	Creation time:	15. 06. 2019 20:24

#	Modifying user name:	WinNT
#	Modification time:	15. 06. 2019 20:24

#	Program:	/corina/corina34_cracker 3.40 0067  02.08.2006

@<TRIPOS>MOLECULE
ASD02508388
  37   39    0    0    0
SMALL
NO_CHARGES


@<TRIPOS>ATOM
   1 C1            -0.1927     1.7623     0.2788 C.2     
   2 C2            -0.1736     0.3626     0.4461 C.2     
   3 C3             1.1146    -0.0327     0.4052 C.2     
   4 N4             1.8946     1.0735     0.2183 N.pl3   
   5 C5             1.0846     2.1713     0.1417 C.2     
   6 C6             3.2894     1.0810     0.1220 C.ar    
   7 C7             4.0293     1.9604     0.9050 C.ar    
   8 N8             3.8933     0.2477    -0.7091 N.ar    
   9 C9             5.2067     0.2216    -0.8306 C.ar    
  10 C10            6.0039     1.0702    -0.0881 C.ar    
  11 C11            5.4103     1.9567     0.7998 C.ar    
  12 S12            1.6926    -1.6894     0.5657 S.o2    
  13 O13            1.6091    -2.2706    -0.7283 O.2     
  14 O14            2.9005    -1.6226     1.3112 O.2     
  15 N15            0.6024    -2.4993     1.5133 N.am    
  16 C16            0.3855    -2.0926     2.8317 C.ar    
  17 C17           -0.9089    -1.9963     3.3258 C.ar    
  18 Cl18           3.2330     3.0481     1.9989 Cl      
  19 C19           -1.1214    -1.5933     4.6319 C.ar    
  20 C20           -0.0447    -1.2854     5.4465 C.ar    
  21 C21            1.2468    -1.3803     4.9559 C.ar    
  22 C22            1.4642    -1.7894     3.6523 C.ar    
  23 F23           -2.3803    -1.4994     5.1131 F       
  24 F24            2.2954    -1.0790     5.7526 F       
  25 C25            7.5031     1.0303    -0.2362 C.3     
  26 F26            7.8528     0.0583    -1.1796 F       
  27 F27            7.9630     2.2809    -0.6626 F       
  28 F28            8.0852     0.7148     0.9962 F       
  29 H29           -1.0703     2.3913     0.2592 H       
  30 H30           -1.0337    -0.2761     0.5822 H       
  31 H31            1.4111     3.1904    -0.0039 H       
  32 H32            5.6644    -0.4729    -1.5195 H       
  33 H33            6.0112     2.6308     1.3921 H       
  34 H34            0.1145    -3.2562     1.1527 H       
  35 H35           -1.7489    -2.2356     2.6906 H       
  36 H36           -0.2124    -0.9706     6.4659 H       
  37 H37            2.4716    -1.8635     3.2702 H       
@<TRIPOS>BOND
   1    1    2 1
   2    1    5 2
   3    1   29 1
   4    2    3 2
   5    2   30 1
   6    3    4 1
   7    3   12 1
   8    4    5 1
   9    4    6 1
  10    5   31 1
  11    6    7 ar
  12    6    8 ar
  13    7   18 1
  14    7   11 ar
  15    8    9 ar
  16    9   10 ar
  17    9   32 1
  18   10   11 ar
  19   10   25 1
  20   11   33 1
  21   12   13 2
  22   12   14 2
  23   12   15 am
  24   15   16 1
  25   15   34 1
  26   16   17 ar
  27   16   22 ar
  28   17   19 ar
  29   17   35 1
  30   19   20 ar
  31   19   23 1
  32   20   21 ar
  33   20   36 1
  34   21   22 ar
  35   21   24 1
  36   22   37 1
  37   25   26 1
  38   25   27 1
  39   25   28 1

#	End of record

