#	Name: ASD01901550
#	Creating user name:	WinNT
#	Creation time:	15. 06. 2019 19:53

#	Modifying user name:	WinNT
#	Modification time:	15. 06. 2019 19:53

#	Program:	/corina/corina34_cracker 3.40 0067  02.08.2006

@<TRIPOS>MOLECULE
ASD01901550
  44   49    0    0    0
SMALL
NO_CHARGES


@<TRIPOS>ATOM
   1 C1             1.0593     1.6638     0.3899 C.3     
   2 C2             0.7535     0.1921     0.2825 C.2     
   3 N3             0.5601    -0.4742    -0.8145 N.2     
   4 O4             0.3004    -1.8299    -0.5107 O.3     
   5 C5             0.3359    -2.0021     0.8264 C.ar    
   6 C6             0.1558    -3.1034     1.6504 C.ar    
   7 C7             0.2583    -2.9577     3.0251 C.ar    
   8 N8             0.0775    -4.0640     3.8543 N.pl3   
   9 C9            -0.4308    -3.8940     5.1459 C.2     
  10 N10           -0.8704    -2.7761     5.6599 N.2     
  11 N11           -1.3005    -2.9894     6.9736 N.pl3   
  12 H12           -1.6682    -2.3116     7.5621 H       
  13 C13           -1.1202    -4.3085     7.2963 C.ar    
  14 C14           -1.3656    -5.0670     8.4403 C.ar    
  15 C15           -1.0519    -6.4116     8.4125 C.ar    
  16 C16           -0.5076    -6.9662     7.2614 C.ar    
  17 N17           -0.2826    -6.2375     6.1918 N.ar    
  18 C18           -0.5717    -4.9387     6.1630 C.ar    
  19 C19            0.5417    -1.7115     3.5843 C.ar    
  20 C20            0.7207    -0.6201     2.7853 C.ar    
  21 C21            0.6263    -0.7501     1.3967 C.ar    
  22 C22            2.5512     1.8715     0.3451 C.ar    
  23 C23            3.2829     1.8626     1.5260 C.ar    
  24 C24            4.6364     2.0480     1.5122 C.ar    
  25 C25            5.2961     2.2489     0.3025 C.ar    
  26 N26            6.6060     2.4594    -0.0411 N.pl3   
  27 H27            7.3504     2.5036     0.5792 H       
  28 N28            6.6975     2.5999    -1.4298 N.2     
  29 C29            5.5174     2.4885    -1.9695 C.2     
  30 C30            4.5561     2.2583    -0.8959 C.ar    
  31 C31            3.1716     2.0609    -0.8560 C.ar    
  32 H32            0.5937     2.1932    -0.4414 H       
  33 H33            0.6670     2.0487     1.3311 H       
  34 H34           -0.0638    -4.0704     1.2225 H       
  35 H35            0.3042    -4.9515     3.5352 H       
  36 H36           -1.7894    -4.6149     9.3248 H       
  37 H37           -1.2286    -7.0285     9.2812 H       
  38 H38           -0.2639    -8.0182     7.2455 H       
  39 H39            0.6196    -1.6099     4.6567 H       
  40 H40            0.9395     0.3419     3.2248 H       
  41 H41            2.7754     1.7075     2.4666 H       
  42 H42            5.1934     2.0392     2.4374 H       
  43 H43            5.2907     2.5549    -3.0233 H       
  44 H44            2.5964     2.0623    -1.7700 H       
@<TRIPOS>BOND
   1    1    2 1
   2    1   22 1
   3    1   32 1
   4    1   33 1
   5    2   21 1
   6    2    3 2
   7    3    4 1
   8    4    5 1
   9    5   21 ar
  10    5    6 ar
  11    6    7 ar
  12    6   34 1
  13    7    8 1
  14    7   19 ar
  15    8    9 1
  16    8   35 1
  17    9   18 1
  18    9   10 2
  19   10   11 1
  20   11   12 1
  21   11   13 1
  22   13   18 ar
  23   13   14 ar
  24   14   15 ar
  25   14   36 1
  26   15   16 ar
  27   15   37 1
  28   16   17 ar
  29   16   38 1
  30   17   18 ar
  31   19   20 ar
  32   19   39 1
  33   20   21 ar
  34   20   40 1
  35   22   31 ar
  36   22   23 ar
  37   23   24 ar
  38   23   41 1
  39   24   25 ar
  40   24   42 1
  41   25   30 ar
  42   25   26 1
  43   26   27 1
  44   26   28 1
  45   28   29 2
  46   29   30 1
  47   29   43 1
  48   30   31 ar
  49   31   44 1

#	End of record

