#	Name: ASD01910247
#	Creating user name:	WinNT
#	Creation time:	15. 06. 2019 19:55

#	Modifying user name:	WinNT
#	Modification time:	15. 06. 2019 19:55

#	Program:	/corina/corina34_cracker 3.40 0067  02.08.2006

@<TRIPOS>MOLECULE
ASD01910247
  56   60    0    0    0
SMALL
NO_CHARGES


@<TRIPOS>ATOM
   1 C1             0.4206     0.9922    -0.1432 C.2     
   2 C2             1.5192     2.0224    -0.0898 C.3     
   3 C3             1.4554     2.9025    -1.3402 C.3     
   4 C4             2.5908     3.9280    -1.3027 C.3     
   5 C5             2.4237     4.8242    -0.0716 C.3     
   6 N6             2.3386     3.9743     1.1239 N.am    
   7 C7             1.3400     2.8969     1.1551 C.3     
   8 C8             3.1608     4.1790     2.1720 C.2     
   9 C9             2.9789     3.4047     3.4146 C.ar    
  10 O10            4.0525     5.0019     2.0935 O.2     
  11 N11            0.5732    -0.3086    -0.1410 N.2     
  12 C12           -0.6769    -0.8210    -0.1986 C.2     
  13 N13           -1.5070     0.1891    -0.2320 N.2     
  14 O14           -0.8929     1.2344    -0.1958 O.3     
  15 C15           -1.0390    -2.2598    -0.2206 C.ar    
  16 C16           -2.3776    -2.6426    -0.2815 C.ar    
  17 C17           -2.7098    -3.9815    -0.3022 C.ar    
  18 C18           -1.7147    -4.9450    -0.2626 C.ar    
  19 C19           -0.3825    -4.5687    -0.2019 C.ar    
  20 C20           -0.0412    -3.2321    -0.1862 C.ar    
  21 F21           -2.0444    -6.2550    -0.2826 F       
  22 C22            4.0839     2.9082     4.1074 C.ar    
  23 N23            3.9226     2.2174     5.2167 N.ar    
  24 C24            2.7181     1.9696     5.7129 C.ar    
  25 C25            1.5703     2.4350     5.0732 C.ar    
  26 C26            1.6922     3.1619     3.9201 C.ar    
  27 N27            2.5988     1.2381     6.8824 N.3     
  28 C28            3.9193     0.8436     7.3940 C.3     
  29 C29            3.7445     0.0905     8.7155 C.3     
  30 O30            2.8863    -1.0344     8.5074 O.3     
  31 C31            1.5914    -0.6864     8.0099 C.3     
  32 C32            1.7444     0.0587     6.6812 C.3     
  33 H33            2.4862     1.5211    -0.0468 H       
  34 H34            1.5580     2.2794    -2.2285 H       
  35 H35            0.4976     3.4221    -1.3700 H       
  36 H36            3.5479     3.4092    -1.2480 H       
  37 H37            2.5588     4.5392    -2.2047 H       
  38 H38            3.2819     5.4907     0.0143 H       
  39 H39            1.5105     5.4114    -0.1683 H       
  40 H40            0.3385     3.3270     1.1585 H       
  41 H41            1.4831     2.2919     2.0504 H       
  42 H42           -3.1538    -1.8923    -0.3121 H       
  43 H43           -3.7469    -4.2790    -0.3491 H       
  44 H44            0.3900    -5.3228    -0.1712 H       
  45 H45            0.9974    -2.9396    -0.1389 H       
  46 H46            5.0793     3.0916     3.7304 H       
  47 H47            0.5941     2.2275     5.4860 H       
  48 H48            0.8179     3.5333     3.4063 H       
  49 H49            4.4122     0.1962     6.6687 H       
  50 H50            4.5262     1.7337     7.5599 H       
  51 H51            4.7162    -0.2536     9.0697 H       
  52 H52            3.3005     0.7548     9.4570 H       
  53 H53            1.0059    -1.5925     7.8537 H       
  54 H54            1.0848    -0.0447     8.7308 H       
  55 H55            0.7637     0.3760     6.3268 H       
  56 H56            2.2025    -0.6012     5.9445 H       
@<TRIPOS>BOND
   1    1   11 2
   2    1    2 1
   3    1   14 1
   4    2    3 1
   5    2    7 1
   6    2   33 1
   7    3    4 1
   8    3   34 1
   9    3   35 1
  10    4    5 1
  11    4   36 1
  12    4   37 1
  13    5    6 1
  14    5   38 1
  15    5   39 1
  16    6    7 1
  17    6    8 am
  18    7   40 1
  19    7   41 1
  20    8    9 1
  21    8   10 2
  22    9   22 ar
  23    9   26 ar
  24   11   12 1
  25   12   13 2
  26   12   15 1
  27   13   14 1
  28   15   16 ar
  29   15   20 ar
  30   16   17 ar
  31   16   42 1
  32   17   18 ar
  33   17   43 1
  34   18   19 ar
  35   18   21 1
  36   19   20 ar
  37   19   44 1
  38   20   45 1
  39   22   23 ar
  40   22   46 1
  41   23   24 ar
  42   24   25 ar
  43   24   27 1
  44   25   26 ar
  45   25   47 1
  46   26   48 1
  47   27   28 1
  48   27   32 1
  49   28   29 1
  50   28   49 1
  51   28   50 1
  52   29   30 1
  53   29   51 1
  54   29   52 1
  55   30   31 1
  56   31   32 1
  57   31   53 1
  58   31   54 1
  59   32   55 1
  60   32   56 1

#	End of record

