#	Name: ASD02500044
#	Creating user name:	WinNT
#	Creation time:	15. 06. 2019 20:22

#	Modifying user name:	WinNT
#	Modification time:	15. 06. 2019 20:22

#	Program:	/corina/corina34_cracker 3.40 0067  02.08.2006

@<TRIPOS>MOLECULE
ASD02500044
  71   75    0    0    0
SMALL
NO_CHARGES


@<TRIPOS>ATOM
   1 O1            -2.8311     0.1843     0.1974 O.2     
   2 C2            -2.5742     1.2411     0.7420 C.2     
   3 C3            -1.2047     1.7797     0.7144 C.ar    
   4 C4            -0.2483     1.2550    -0.1595 C.ar    
   5 C5             1.0474     1.7826    -0.1686 C.ar    
   6 C6             1.3886     2.8044     0.6671 C.ar    
   7 C7             0.4503     3.3474     1.5513 C.ar    
   8 C8            -0.8514     2.8388     1.5797 C.ar    
   9 C9            -1.8565     3.3953     2.4998 C.2     
  10 O10           -1.5186     4.1246     3.4126 O.2     
  11 C11           -3.2825     3.0570     2.3005 C.ar    
  12 C12           -3.6353     2.0038     1.4347 C.ar    
  13 C13           -4.9766     1.6856     1.2461 C.ar    
  14 C14           -5.9538     2.4055     1.9097 C.ar    
  15 C15           -5.6072     3.4405     2.7601 C.ar    
  16 C16           -4.2788     3.7732     2.9564 C.ar    
  17 N17            0.8099     4.3863     2.3958 N.pl3   
  18 C18            0.3649     5.6843     2.1348 C.ar    
  19 C19           -0.3384     5.9579     0.9685 C.ar    
  20 C20           -0.7773     7.2425     0.7139 C.ar    
  21 C21           -0.5170     8.2557     1.6181 C.ar    
  22 C22            0.1829     7.9868     2.7804 C.ar    
  23 C23            0.6197     6.7038     3.0441 C.ar    
  24 C24            1.3818     6.4118     4.3110 C.3     
  25 C25           -0.9967     9.6562     1.3364 C.3     
  26 S26           -1.6694     7.5907    -0.7651 S.o2    
  27 O27           -0.7198     8.0849    -1.6996 O.2     
  28 O28           -2.4890     6.4572    -1.0157 O.2     
  29 O29           -2.6136     8.7449    -0.4606 O.3     
  30 N30           -0.5823     0.2156    -1.0138 N.pl3   
  31 C31           -1.5788     0.3951    -1.9759 C.ar    
  32 C32           -2.4216    -0.6574    -2.3101 C.ar    
  33 C33           -2.2621    -1.9952    -1.6349 C.3     
  34 C34           -3.4062    -0.4762    -3.2616 C.ar    
  35 C35           -3.5532     0.7509    -3.8816 C.ar    
  36 C36           -2.7158     1.8011    -3.5513 C.ar    
  37 C37           -1.7331     1.6287    -2.5969 C.ar    
  38 C38           -0.8216     2.7736    -2.2373 C.3     
  39 S39           -2.9078     3.3627    -4.3446 S.o2    
  40 O40           -1.9696     3.3888    -5.4115 O.2     
  41 O41           -4.3040     3.5483    -4.5326 O.2     
  42 O42           -2.4621     4.4289    -3.3542 O.3     
  43 C43           -4.6281     0.9445    -4.9200 C.3     
  44 H44            1.7852     1.3759    -0.8444 H       
  45 H45            2.3939     3.1985     0.6466 H       
  46 H46           -5.2539     0.8791     0.5835 H       
  47 H47           -6.9948     2.1582     1.7627 H       
  48 H48           -6.3796     3.9954     3.2718 H       
  49 H49           -4.0157     4.5823     3.6217 H       
  50 H50            1.3705     4.2118     3.1679 H       
  51 H51           -0.5414     5.1672     0.2614 H       
  52 H52            0.3844     8.7806     3.4845 H       
  53 H53            0.6821     6.1403     5.1014 H       
  54 H54            2.0722     5.5863     4.1376 H       
  55 H55            1.9422     7.2975     4.6102 H       
  56 H56           -2.0254     9.7640     1.6802 H       
  57 H57           -0.3616    10.3702     1.8608 H       
  58 H58           -0.9500     9.8475     0.2643 H       
  59 H59           -3.1560     9.0183    -1.2130 H       
  60 H60           -0.1240    -0.6364    -0.9434 H       
  61 H61           -2.9381    -2.0546    -0.7820 H       
  62 H62           -2.4991    -2.7898    -2.3424 H       
  63 H63           -1.2337    -2.1088    -1.2920 H       
  64 H64           -4.0617    -1.2940    -3.5219 H       
  65 H65           -1.2108     3.2852    -1.3570 H       
  66 H66            0.1761     2.3903    -2.0233 H       
  67 H67           -0.7707     3.4734    -3.0715 H       
  68 H68           -2.5278     5.3323    -3.6928 H       
  69 H69           -5.5112     1.3794    -4.4521 H       
  70 H70           -4.2636     1.6131    -5.6999 H       
  71 H71           -4.8868    -0.0190    -5.3591 H       
@<TRIPOS>BOND
   1    1    2 2
   2    2    3 1
   3    2   12 1
   4    3    4 ar
   5    3    8 ar
   6    4    5 ar
   7    4   30 1
   8    5    6 ar
   9    5   44 1
  10    6    7 ar
  11    6   45 1
  12    7    8 ar
  13    7   17 1
  14    8    9 1
  15    9   10 2
  16    9   11 1
  17   11   12 ar
  18   11   16 ar
  19   12   13 ar
  20   13   14 ar
  21   13   46 1
  22   14   15 ar
  23   14   47 1
  24   15   16 ar
  25   15   48 1
  26   16   49 1
  27   17   18 1
  28   17   50 1
  29   18   19 ar
  30   18   23 ar
  31   19   20 ar
  32   19   51 1
  33   20   21 ar
  34   20   26 1
  35   21   22 ar
  36   21   25 1
  37   22   23 ar
  38   22   52 1
  39   23   24 1
  40   24   53 1
  41   24   54 1
  42   24   55 1
  43   25   56 1
  44   25   57 1
  45   25   58 1
  46   26   27 2
  47   26   28 2
  48   26   29 1
  49   29   59 1
  50   30   31 1
  51   30   60 1
  52   31   32 ar
  53   31   37 ar
  54   32   33 1
  55   32   34 ar
  56   33   61 1
  57   33   62 1
  58   33   63 1
  59   34   35 ar
  60   34   64 1
  61   35   36 ar
  62   35   43 1
  63   36   37 ar
  64   36   39 1
  65   37   38 1
  66   38   65 1
  67   38   66 1
  68   38   67 1
  69   39   40 2
  70   39   41 2
  71   39   42 1
  72   42   68 1
  73   43   69 1
  74   43   70 1
  75   43   71 1

#	End of record

