#	Name: ASD05380077
#	Creating user name:	WinNT
#	Creation time:	15. 06. 2019 20:59

#	Modifying user name:	WinNT
#	Modification time:	15. 06. 2019 20:59

#	Program:	/corina/corina34_cracker 3.40 0067  02.08.2006

@<TRIPOS>MOLECULE
ASD05380077
  51   55    0    0    0
SMALL
NO_CHARGES


@<TRIPOS>ATOM
   1 C1            -0.2697     1.7431    -0.3089 C.ar    
   2 C2            -0.0034     0.3798    -0.5676 C.ar    
   3 C3             0.6320     2.7211    -0.7227 C.ar    
   4 C4             1.7818     2.3482    -1.3843 C.ar    
   5 C5             2.0464     1.0095    -1.6406 C.ar    
   6 C6             1.1685     0.0273    -1.2396 C.ar    
   7 N7            -0.8954    -0.5551    -0.1548 N.2     
   8 C8            -1.9850    -0.2270     0.4705 C.2     
   9 N9            -2.3221     1.0588     0.7611 N.am    
  10 C10           -1.5091     2.0809     0.4060 C.2     
  11 C11           -3.5179     1.3264     1.4393 C.ar    
  12 C12           -4.6871     1.5517     0.7250 C.ar    
  13 C13           -3.5375     1.3613     2.8272 C.ar    
  14 C14           -4.7191     1.6253     3.4943 C.ar    
  15 C15           -5.8819     1.8546     2.7799 C.ar    
  16 C16           -5.8661     1.8152     1.3968 C.ar    
  17 C17           -2.9242    -1.3261     0.8957 C.3     
  18 N18           -2.9250    -2.3861    -0.1156 N.pl3   
  19 C19           -4.0231    -3.2178    -0.2452 C.ar    
  20 N20           -5.0842    -3.0679     0.5398 N.ar    
  21 O21           -1.7978     3.2359     0.6599 O.2     
  22 C22           -4.0423    -4.2358    -1.2141 C.ar    
  23 C23           -5.1833    -5.0505    -1.3018 C.ar    
  24 N24           -6.1991    -4.8337    -0.4724 N.ar    
  25 C25           -6.1418    -3.8605     0.4223 C.ar    
  26 N26           -3.1712    -4.6649    -2.1604 N.2     
  27 C27           -3.6927    -5.6662    -2.8067 C.2     
  28 N28           -4.9346    -5.9427    -2.3139 N.pl3   
  29 C29            0.3517     4.1763    -0.4493 C.3     
  30 C30           -2.4631    -1.9008     2.2365 C.3     
  31 N31           -7.2227    -3.6628     1.2657 N.pl3   
  32 Cl32          -7.3270     2.1035     0.5042 Cl      
  33 Cl33          -4.7445     1.6685     5.2295 Cl      
  34 H34            2.4830     3.1037    -1.7066 H       
  35 H35            2.9521     0.7350    -2.1610 H       
  36 H36            1.3852    -1.0107    -1.4442 H       
  37 H37           -4.6752     1.5214    -0.3545 H       
  38 H38           -2.6303     1.1820     3.3852 H       
  39 H39           -6.8042     2.0603     3.3029 H       
  40 H40           -3.9315    -0.9231     1.0003 H       
  41 H41           -2.1557    -2.5049    -0.6943 H       
  42 H42           -3.2135    -6.1996    -3.6144 H       
  43 H43           -5.5319    -6.6420    -2.6221 H       
  44 H44            0.6717     4.4241     0.5628 H       
  45 H45            0.8978     4.7921    -1.1640 H       
  46 H46           -0.7171     4.3655    -0.5490 H       
  47 H47           -3.1238    -2.7171     2.5286 H       
  48 H48           -1.4439    -2.2752     2.1402 H       
  49 H49           -2.4929    -1.1197     2.9962 H       
  50 H50           -7.1981    -2.9544     1.9278 H       
  51 H51           -8.0044    -4.2327     1.1940 H       
@<TRIPOS>BOND
   1    1    2 ar
   2    1    3 ar
   3    1   10 1
   4    2    7 1
   5    2    6 ar
   6    3    4 ar
   7    3   29 1
   8    4    5 ar
   9    4   34 1
  10    5    6 ar
  11    5   35 1
  12    6   36 1
  13    7    8 2
  14    8    9 1
  15    8   17 1
  16    9   10 am
  17    9   11 1
  18   10   21 2
  19   11   12 ar
  20   11   13 ar
  21   12   16 ar
  22   12   37 1
  23   13   14 ar
  24   13   38 1
  25   14   15 ar
  26   14   33 1
  27   15   16 ar
  28   15   39 1
  29   16   32 1
  30   17   18 1
  31   17   30 1
  32   17   40 1
  33   18   19 1
  34   18   41 1
  35   19   20 ar
  36   19   22 ar
  37   20   25 ar
  38   22   23 ar
  39   22   26 1
  40   23   24 ar
  41   23   28 1
  42   24   25 ar
  43   25   31 1
  44   26   27 2
  45   27   28 1
  46   27   42 1
  47   28   43 1
  48   29   44 1
  49   29   45 1
  50   29   46 1
  51   30   47 1
  52   30   48 1
  53   30   49 1
  54   31   50 1
  55   31   51 1

#	End of record

