#	Name: ASD01180253
#	Creating user name:	WinNT
#	Creation time:	15. 06. 2019 19:07

#	Modifying user name:	WinNT
#	Modification time:	15. 06. 2019 19:07

#	Program:	/corina/corina34_cracker 3.40 0067  02.08.2006

@<TRIPOS>MOLECULE
ASD01180253
  66   68    0    0    0
SMALL
NO_CHARGES


@<TRIPOS>ATOM
   1 C1             1.2271     2.1088     0.6819 C.2     
   2 C2             1.1230     0.6060     0.6407 C.3     
   3 C3             2.5074     0.0055     0.3882 C.3     
   4 O4             2.2987     2.6446     0.5254 O.2     
   5 O5             0.1285     2.8523     0.8870 O.3     
   6 C6             3.5084    -2.2017     0.1367 C.2     
   7 C7             3.4064    -3.6730     0.0963 C.ar    
   8 C8             4.5477    -4.4599    -0.1232 C.ar    
   9 C9             4.4066    -5.8208    -0.1528 C.ar    
  10 C10            3.1443    -6.3817     0.0343 C.ar    
  11 N11            2.0817    -5.6154     0.2395 N.ar    
  12 C12            2.1748    -4.3025     0.2816 C.ar    
  13 O13            4.5867    -1.6625    -0.0209 O.2     
  14 N14            2.4062    -1.4554     0.3481 N.am    
  15 N15            2.9977    -7.7582     0.0050 N.pl3   
  16 C16            4.1439    -8.6100    -0.3218 C.3     
  17 C17            4.9823    -8.8419     0.9368 C.3     
  18 C18            6.2527    -9.6110     0.5689 C.3     
  19 C19            7.1345    -8.7399    -0.3282 C.3     
  20 C20            2.5539   -10.5484    -0.2757 C.ar    
  21 C21            3.6521    -9.9335    -0.8487 C.ar    
  22 C22            4.2965   -10.5466    -1.9135 C.ar    
  23 C23            3.8129   -11.7616    -2.3677 C.ar    
  24 C24            2.7019   -12.3239    -1.7434 C.ar    
  25 N25            2.1141   -11.7051    -0.7275 N.ar    
  26 C26            2.1711   -13.6251    -2.2185 C.ar    
  27 C27            3.0427   -14.6764    -2.4966 C.ar    
  28 C28            2.5434   -15.8848    -2.9384 C.ar    
  29 C29            1.1807   -16.0534    -3.1058 C.ar    
  30 C30            0.3110   -15.0134    -2.8313 C.ar    
  31 C31            0.7987   -13.8026    -2.3831 C.ar    
  32 C32            0.6416   -17.3750    -3.5895 C.3     
  33 F33            0.3729   -18.1990    -2.4914 F       
  34 F34           -0.5373   -17.1615    -4.3119 F       
  35 F35            1.5888   -17.9912    -4.4143 F       
  36 C36            4.4787   -12.4659    -3.5217 C.3     
  37 C37            7.0190    -9.9697     1.8436 C.3     
  38 H38            0.7375     0.2422     1.5932 H       
  39 H39            0.4470     0.3105    -0.1616 H       
  40 H40            2.8930     0.3693    -0.5642 H       
  41 H41            3.1835     0.3011     1.1905 H       
  42 H42            0.2451     3.8121     0.9053 H       
  43 H43            5.5153    -4.0017    -0.2659 H       
  44 H44            5.2652    -6.4543    -0.3200 H       
  45 H45            1.2901    -3.7081     0.4561 H       
  46 H46            1.5460    -1.8856     0.4738 H       
  47 H47            2.1361    -8.1585     0.2008 H       
  48 H48            4.7551    -8.1214    -1.0806 H       
  49 H49            5.2532    -7.8814     1.3750 H       
  50 H50            4.4036    -9.4198     1.6575 H       
  51 H51            5.9837   -10.5240     0.0376 H       
  52 H52            6.5657    -8.4280    -1.2041 H       
  53 H53            7.4594    -7.8596     0.2264 H       
  54 H54            8.0065    -9.3115    -0.6458 H       
  55 H55            2.0527   -10.0761     0.5562 H       
  56 H56            5.1560   -10.0860    -2.3779 H       
  57 H57            4.1069   -14.5456    -2.3669 H       
  58 H58            3.2179   -16.7002    -3.1542 H       
  59 H59           -0.7521   -15.1505    -2.9638 H       
  60 H60            0.1185   -12.9927    -2.1648 H       
  61 H61            5.2779   -13.1044    -3.1454 H       
  62 H62            3.7442   -13.0752    -4.0482 H       
  63 H63            4.8958   -11.7272    -4.2063 H       
  64 H64            6.3909   -10.5903     2.4827 H       
  65 H65            7.9241   -10.5176     1.5815 H       
  66 H66            7.2880    -9.0568     2.3749 H       
@<TRIPOS>BOND
   1    1    2 1
   2    1    4 2
   3    1    5 1
   4    2    3 1
   5    2   38 1
   6    2   39 1
   7    3   14 1
   8    3   40 1
   9    3   41 1
  10    5   42 1
  11    6    7 1
  12    6   13 2
  13    6   14 am
  14    7    8 ar
  15    7   12 ar
  16    8    9 ar
  17    8   43 1
  18    9   10 ar
  19    9   44 1
  20   10   11 ar
  21   10   15 1
  22   11   12 ar
  23   12   45 1
  24   14   46 1
  25   15   16 1
  26   15   47 1
  27   16   17 1
  28   16   21 1
  29   16   48 1
  30   17   18 1
  31   17   49 1
  32   17   50 1
  33   18   19 1
  34   18   37 1
  35   18   51 1
  36   19   52 1
  37   19   53 1
  38   19   54 1
  39   20   21 ar
  40   20   25 ar
  41   20   55 1
  42   21   22 ar
  43   22   23 ar
  44   22   56 1
  45   23   24 ar
  46   23   36 1
  47   24   25 ar
  48   24   26 1
  49   26   27 ar
  50   26   31 ar
  51   27   28 ar
  52   27   57 1
  53   28   29 ar
  54   28   58 1
  55   29   30 ar
  56   29   32 1
  57   30   31 ar
  58   30   59 1
  59   31   60 1
  60   32   33 1
  61   32   34 1
  62   32   35 1
  63   36   61 1
  64   36   62 1
  65   36   63 1
  66   37   64 1
  67   37   65 1
  68   37   66 1

#	End of record

