#	Name: ASD01418041
#	Creating user name:	WinNT
#	Creation time:	15. 06. 2019 19:20

#	Modifying user name:	WinNT
#	Modification time:	15. 06. 2019 19:20

#	Program:	/corina/corina34_cracker 3.40 0067  02.08.2006

@<TRIPOS>MOLECULE
ASD01418041
  68   72    0    0    0
SMALL
NO_CHARGES


@<TRIPOS>ATOM
   1 C1            -0.0178     1.4639     0.0101 C.3     
   2 N2             0.0021    -0.0041     0.0020 N.pl3   
   3 C3             0.6018    -0.7896     0.9591 C.2     
   4 C4             1.2671    -0.2898     2.1782 C.ar    
   5 C5             2.0017     0.9079     2.1879 C.ar    
   6 C6             2.2591     1.6930     0.9888 C.2     
   7 C7             1.4032     1.9590    -0.0008 C.2     
   8 C8             1.1456    -1.0388     3.3527 C.ar    
   9 C9             1.7091    -0.5895     4.5269 C.ar    
  10 C10            2.3983     0.6154     4.5531 C.ar    
  11 C11            2.5454     1.3596     3.4028 C.ar    
  12 C12           -0.5482    -0.8183    -0.9505 C.ar    
  13 C13           -0.2573    -2.1592    -0.5813 C.ar    
  14 C14            0.4681    -2.1041     0.6173 C.2     
  15 C15           -1.2695    -0.5364    -2.1023 C.ar    
  16 C16           -1.6868    -1.6309    -2.8706 C.ar    
  17 C17           -1.3929    -2.9484    -2.5000 C.ar    
  18 C18           -0.6842    -3.2423    -1.3674 C.ar    
  19 C19            1.0034    -3.2830     1.3886 C.3     
  20 C20           -0.1568    -4.1896     1.8044 C.3     
  21 C21            1.9753    -4.0702     0.5074 C.3     
  22 C22            2.5187    -5.2670     1.2905 C.3     
  23 C23            1.3585    -6.1737     1.7062 C.3     
  24 C24            0.3866    -5.3865     2.5874 C.3     
  25 F25            2.9275     1.0612     5.7135 F       
  26 C26           -2.4576    -1.3884    -4.1037 C.2     
  27 O27           -2.7225    -0.2515    -4.4410 O.2     
  28 O28           -2.8684    -2.4278    -4.8568 O.3     
  29 C29            1.8625     2.7588    -1.1342 C.2     
  30 O30            3.0069     3.1697    -1.1646 O.2     
  31 O31            1.0170     3.0415    -2.1471 O.3     
  32 C32            1.5332     3.8281    -3.2226 C.3     
  33 C33           -3.6227    -2.1144    -6.0573 C.3     
  34 C34           -2.7688    -1.2471    -6.9844 C.3     
  35 C35           -3.9993    -3.4115    -6.7761 C.3     
  36 C36           -4.8949    -1.3545    -5.6765 C.3     
  37 H37           -0.5403     1.8286    -0.8743 H       
  38 H38           -0.5233     1.8191     0.9081 H       
  39 H39            3.2520     2.1061     0.8892 H       
  40 H40            0.6067    -1.9746     3.3395 H       
  41 H41            1.6143    -1.1757     5.4290 H       
  42 H42            3.0819     2.2964     3.4349 H       
  43 H43           -1.4985     0.4785    -2.3923 H       
  44 H44           -1.7365    -3.7576    -3.1273 H       
  45 H45           -0.4626    -4.2623    -1.0899 H       
  46 H46            1.5245    -2.9289     2.2780 H       
  47 H47           -0.8493    -3.6288     2.4322 H       
  48 H48           -0.6780    -4.5437     0.9150 H       
  49 H49            1.4541    -4.4242    -0.3820 H       
  50 H50            2.8019    -3.4242     0.2112 H       
  51 H51            3.2112    -5.8278     0.6627 H       
  52 H52            3.0399    -4.9130     2.1799 H       
  53 H53            0.8374    -6.5278     0.8168 H       
  54 H54            1.7457    -7.0264     2.2641 H       
  55 H55            0.9078    -5.0324     3.4769 H       
  56 H56           -0.4400    -6.0324     2.8836 H       
  57 H57            1.8651     4.7934    -2.8401 H       
  58 H58            2.3756     3.3096    -3.6803 H       
  59 H59            0.7526     3.9816    -3.9677 H       
  60 H60           -1.8625    -1.7885    -7.2557 H       
  61 H61           -3.3350    -1.0119    -7.8855 H       
  62 H62           -2.5004    -0.3230    -6.4723 H       
  63 H63           -4.6077    -4.0294    -6.1156 H       
  64 H64           -4.5656    -3.1763    -7.6773 H       
  65 H65           -3.0930    -3.9529    -7.0474 H       
  66 H66           -4.6266    -0.4304    -5.1644 H       
  67 H67           -5.4611    -1.1193    -6.5777 H       
  68 H68           -5.5032    -1.9724    -5.0160 H       
@<TRIPOS>BOND
   1    1    2 1
   2    1    7 1
   3    1   37 1
   4    1   38 1
   5    2    3 1
   6    2   12 1
   7    3    4 1
   8    3   14 2
   9    4    5 ar
  10    4    8 ar
  11    5    6 1
  12    5   11 ar
  13    6    7 2
  14    6   39 1
  15    7   29 1
  16    8    9 ar
  17    8   40 1
  18    9   10 ar
  19    9   41 1
  20   10   11 ar
  21   10   25 1
  22   11   42 1
  23   12   13 ar
  24   12   15 ar
  25   13   14 1
  26   13   18 ar
  27   14   19 1
  28   15   16 ar
  29   15   43 1
  30   16   17 ar
  31   16   26 1
  32   17   18 ar
  33   17   44 1
  34   18   45 1
  35   19   20 1
  36   19   21 1
  37   19   46 1
  38   20   24 1
  39   20   47 1
  40   20   48 1
  41   21   22 1
  42   21   49 1
  43   21   50 1
  44   22   23 1
  45   22   51 1
  46   22   52 1
  47   23   24 1
  48   23   53 1
  49   23   54 1
  50   24   55 1
  51   24   56 1
  52   26   27 2
  53   26   28 1
  54   28   33 1
  55   29   30 2
  56   29   31 1
  57   31   32 1
  58   32   57 1
  59   32   58 1
  60   32   59 1
  61   33   34 1
  62   33   35 1
  63   33   36 1
  64   34   60 1
  65   34   61 1
  66   34   62 1
  67   35   63 1
  68   35   64 1
  69   35   65 1
  70   36   66 1
  71   36   67 1
  72   36   68 1

#	End of record

