#	Name: ASD04570054
#	Creating user name:	WinNT
#	Creation time:	15. 06. 2019 20:50

#	Modifying user name:	WinNT
#	Modification time:	15. 06. 2019 20:50

#	Program:	/corina/corina34_cracker 3.40 0067  02.08.2006

@<TRIPOS>MOLECULE
ASD04570054
 300  300    0    0    0
SMALL
NO_CHARGES


@<TRIPOS>ATOM
   1 C1            -1.7230     0.2754    -8.7969 C.3     
   2 C2            -1.6233    -1.0810    -8.0959 C.3     
   3 C3            -2.9433    -1.8372    -8.2583 C.3     
   4 C4            -2.8436    -3.1936    -7.5574 C.3     
   5 C5            -4.1637    -3.9498    -7.7198 C.3     
   6 C6            -4.0640    -5.3062    -7.0189 C.3     
   7 C7            -5.3841    -6.0624    -7.1813 C.3     
   8 C8            -5.2844    -7.4188    -6.4804 C.3     
   9 C9            -6.6045    -8.1750    -6.6428 C.3     
  10 C10           -6.5048    -9.5314    -5.9419 C.3     
  11 C11           -7.8249   -10.2876    -6.1043 C.3     
  12 C12           -7.7251   -11.6440    -5.4034 C.3     
  13 C13           -9.0452   -12.4002    -5.5658 C.3     
  14 C14           -8.9455   -13.7566    -4.8648 C.3     
  15 C15          -10.2458   -14.5015    -5.0248 C.2     
  16 N16          -10.3905   -15.7281    -4.4854 N.am    
  17 O17          -11.1620   -13.9972    -5.6389 O.2     
  18 C18          -11.6545   -16.4522    -4.6409 C.3     
  19 C19          -11.5563   -17.7882    -3.9505 C.2     
  20 N20          -12.6074   -18.6316    -3.9622 N.am    
  21 O21          -10.5314   -18.1043    -3.3843 O.2     
  22 C22          -12.5119   -19.9304    -3.2911 C.3     
  23 C23          -13.8914   -20.3999    -2.9069 C.2     
  24 N24          -14.0498   -21.5787    -2.2731 N.am    
  25 O25          -14.8590   -19.7169    -3.1679 O.2     
  26 C26          -15.3909   -22.0351    -1.8996 C.3     
  27 C27          -15.3980   -23.5382    -1.7916 C.2     
  28 O28          -14.3829   -24.1664    -2.0057 O.2     
  29 N29          -16.5325   -24.1845    -1.4573 N.am    
  30 C30          -16.5395   -25.6457    -1.3523 C.3     
  31 C31          -16.7736   -26.2552    -2.7360 C.3     
  32 C32          -17.6422   -26.0771    -0.4202 C.2     
  33 O33          -18.3523   -25.2459     0.1048 O.2     
  34 N34          -17.8392   -27.3867    -0.1699 N.am    
  35 C35          -18.9111   -27.8062     0.7362 C.3     
  36 C36           -0.4029     1.0316    -8.6345 C.3     
  37 H37           -9.6577   -16.1314    -3.9942 H       
  38 C38          -11.8722   -20.9479    -4.2378 C.3     
  39 C39          -15.7801   -21.4252    -0.5515 C.3     
  40 C40          -15.8944   -19.9060    -0.6930 C.3     
  41 C41          -16.2836   -19.2960     0.6550 C.3     
  42 C42          -16.3979   -17.7769     0.5135 C.3     
  43 N43          -16.7716   -17.1912     1.8078 N.3     
  44 C44          -15.6090   -25.9255    -3.6338 C.ar    
  45 C45          -14.5223   -26.7775    -3.6972 C.ar    
  46 C46          -13.4540   -26.4751    -4.5207 C.ar    
  47 C47          -13.4727   -25.3209    -5.2812 C.ar    
  48 C48          -14.5598   -24.4693    -5.2185 C.ar    
  49 C49          -15.6300   -24.7740    -4.3983 C.ar    
  50 C50          -18.5722   -29.1504     1.3271 C.2     
  51 C51          -20.2253   -27.9073    -0.0407 C.3     
  52 C52          -20.6337   -26.5182    -0.5351 C.3     
  53 C53          -21.9478   -26.6193    -1.3121 C.3     
  54 C54          -22.3562   -25.2302    -1.8065 C.3     
  55 N55          -23.6180   -25.3273    -2.5525 N.3     
  56 O56          -17.5371   -29.7036     1.0214 O.2     
  57 N57          -19.4193   -29.7379     2.1953 N.am    
  58 C58          -19.0898   -31.0446     2.7698 C.3     
  59 C59          -18.1976   -30.8517     3.9977 C.3     
  60 C60          -20.3585   -31.7490     3.1763 C.2     
  61 O61          -17.9787   -32.1140     4.6305 O.3     
  62 C62          -16.8553   -30.2587     3.5647 C.3     
  63 O63          -21.3438   -31.1041     3.4665 O.2     
  64 N64          -20.3982   -33.0955     3.2175 N.am    
  65 C65          -21.6603   -33.7828     3.5019 C.3     
  66 H66           -1.9261     0.1225    -9.8568 H       
  67 H67           -2.5313     0.8557    -8.3520 H       
  68 H68           -0.8150    -1.6613    -8.5408 H       
  69 H69           -1.4201    -0.9282    -7.0360 H       
  70 H70           -3.7517    -1.2569    -7.8134 H       
  71 H71           -3.1465    -1.9901    -9.3183 H       
  72 H72           -2.0353    -3.7739    -8.0023 H       
  73 H73           -2.6405    -3.0408    -6.4975 H       
  74 H74           -4.9720    -3.3695    -7.2749 H       
  75 H75           -4.3669    -4.1027    -8.7798 H       
  76 H76           -3.2557    -5.8865    -7.4638 H       
  77 H77           -3.8609    -5.1534    -5.9590 H       
  78 H78           -6.1924    -5.4821    -6.7364 H       
  79 H79           -5.5873    -6.2153    -8.2412 H       
  80 H80           -4.4761    -7.9991    -6.9253 H       
  81 H81           -5.0812    -7.2660    -5.4205 H       
  82 H82           -7.4128    -7.5947    -6.1979 H       
  83 H83           -6.8076    -8.3279    -7.7027 H       
  84 H84           -5.6965   -10.1117    -6.3868 H       
  85 H85           -6.3016    -9.3786    -4.8819 H       
  86 H86           -8.6332    -9.7073    -5.6594 H       
  87 H87           -8.0280   -10.4405    -7.1642 H       
  88 H88           -6.9168   -12.2243    -5.8483 H       
  89 H89           -7.5220   -11.4912    -4.3434 H       
  90 H90           -9.8535   -11.8199    -5.1209 H       
  91 H91           -9.2484   -12.5531    -6.6257 H       
  92 H92           -8.1372   -14.3369    -5.3097 H       
  93 H93           -8.7424   -13.6038    -3.8049 H       
  94 H94          -12.4628   -15.8719    -4.1960 H       
  95 H95          -11.8576   -16.6050    -5.7008 H       
  96 H96          -13.4271   -18.3788    -4.4151 H       
  97 H97          -11.8989   -19.8322    -2.3952 H       
  98 H98          -13.2759   -22.1250    -2.0643 H       
  99 H99          -16.1062   -21.7221    -2.6601 H       
 100 H100         -17.3444   -23.6821    -1.2861 H       
 101 H101         -15.5802   -25.9865    -0.9628 H       
 102 H102         -16.8674   -27.3374    -2.6452 H       
 103 H103         -17.6890   -25.8458    -3.1632 H       
 104 H104         -17.2712   -28.0515    -0.5898 H       
 105 H105         -19.0176   -27.0739     1.5366 H       
 106 H106          -0.1997     1.1844    -7.5745 H       
 107 H107           0.4054     0.4513    -9.0794 H       
 108 H108          -0.4739     1.9979    -9.1338 H       
 109 H109         -10.8744   -20.6083    -4.5158 H       
 110 H110         -11.8012   -21.9142    -3.7385 H       
 111 H111         -12.4852   -21.0461    -5.1337 H       
 112 H112         -16.7387   -21.8333    -0.2312 H       
 113 H113         -15.0174   -21.6647     0.1895 H       
 114 H114         -14.9358   -19.4978    -1.0133 H       
 115 H115         -16.6571   -19.6665    -1.4340 H       
 116 H116         -17.2422   -19.7042     0.9753 H       
 117 H117         -15.5209   -19.5356     1.3960 H       
 118 H118         -15.4393   -17.3687     0.1932 H       
 119 H119         -17.1606   -17.5374    -0.2275 H       
 120 H120         -16.1137   -17.4530     2.5266 H       
 121 H121         -16.8535   -16.1878     1.7406 H       
 122 H122         -14.5077   -27.6793    -3.1030 H       
 123 H123         -12.6046   -27.1403    -4.5696 H       
 124 H124         -12.6377   -25.0842    -5.9240 H       
 125 H125         -14.5742   -23.5674    -5.8124 H       
 126 H126         -16.4794   -24.1087    -4.3493 H       
 127 H127         -20.0926   -28.5723    -0.8941 H       
 128 H128         -21.0033   -28.3041     0.6115 H       
 129 H129         -20.7664   -25.8532     0.3183 H       
 130 H130         -19.8556   -26.1214    -1.1873 H       
 131 H131         -21.8151   -27.2843    -2.1655 H       
 132 H132         -22.7259   -27.0161    -0.6599 H       
 133 H133         -22.4889   -24.5653    -0.9531 H       
 134 H134         -21.5782   -24.8335    -2.4587 H       
 135 H135         -24.3392   -25.7525    -1.9893 H       
 136 H136         -23.9092   -24.4221    -2.8899 H       
 137 H137         -20.2472   -29.2954     2.4399 H       
 138 H138         -18.5625   -31.6449     2.0283 H       
 139 H139         -18.6853   -30.1738     4.6982 H       
 140 H140         -17.4200   -32.0674     5.4184 H       
 141 H141         -17.0086   -29.2455     3.1930 H       
 142 H142         -16.1770   -30.2341     4.4175 H       
 143 H143         -16.4241   -30.8740     2.7750 H       
 144 H144         -19.5911   -33.6096     3.0588 H       
 145 H145         -22.0268   -33.4785     4.4823 H       
 146 H146         -22.3961   -33.5208     2.7416 H       
 147 H147         -21.4971   -34.8605     3.4935 H       
 148 C148          28.6115    28.9431    16.8739 C.3     
 149 C149          28.4519    27.4452    16.9172 C.2     
 150 N150          27.2220    26.9008    17.0030 N.am    
 151 C151          27.0668    25.4446    17.0451 C.3     
 152 C152          25.6996    25.0701    16.5336 C.2     
 153 N153          25.3315    23.7747    16.4805 N.am    
 154 C154          24.0024    23.4107    15.9832 C.3     
 155 C155          23.5956    22.0809    16.5640 C.2     
 156 N156          22.4020    21.5428    16.2445 N.am    
 157 O157          24.3424    21.4950    17.3190 O.2     
 158 C158          22.0066    20.2501    16.8091 C.3     
 159 C159          21.0065    19.5881    15.8966 C.2     
 160 N160          20.4990    18.3810    16.2155 N.am    
 161 O161          20.6584    20.1417    14.8752 O.2     
 162 C162          19.5268    17.7375    15.3284 C.3     
 163 C163          18.6788    16.7787    16.1237 C.2     
 164 N164          17.4272    16.4887    15.7165 N.am    
 165 O165          19.1226    16.2679    17.1302 O.2     
 166 C166          16.6422    15.4755    16.4261 C.3     
 167 C167          15.6077    14.8983    15.4946 C.2     
 168 O168          15.5334    15.2943    14.3507 O.2     
 169 N169          14.7651    13.9420    15.9328 N.am    
 170 C170          13.7594    13.3809    15.0273 C.3     
 171 C171          12.5159    14.2723    15.0309 C.3     
 172 C172          13.3857    11.9956    15.4881 C.2     
 173 O173          13.4319    11.7156    16.6672 O.2     
 174 N174          13.0002    11.0677    14.5898 N.am    
 175 C175          12.5331     9.7562    15.0459 C.3     
 176 C176          11.6084     9.1483    13.9894 C.3     
 177 C177          13.7166     8.8481    15.2600 C.2     
 178 O178          14.8396     9.2562    15.0521 O.2     
 179 N179          13.5270     7.5824    15.6826 N.am    
 180 C180          20.2673    16.9727    14.2295 C.3     
 181 C181          15.9453    16.1188    17.6266 C.3     
 182 O182          14.9935    17.0802    17.1660 O.3     
 183 C183          12.8707    15.6449    14.4557 C.3     
 184 C184          10.3473    10.0052    13.8616 C.3     
 185 C185           9.4226     9.3973    12.8051 C.3     
 186 N186           8.2150    10.2177    12.6828 N.pl3   
 187 C187          24.0386    23.3109    14.4569 C.3     
 188 O188          24.9306    25.9345    16.1697 O.2     
 189 C189          27.2233    24.9565    18.4867 C.3     
 190 C190          28.6305    25.2212    18.9567 C.2     
 191 O191          29.4302    26.7296    16.8748 O.2     
 192 N192          30.0342    29.2801    16.7812 N.am    
 193 C193          27.8751    29.4994    15.6536 C.3     
 194 C194          27.9313    31.0282    15.6772 C.3     
 195 C195          27.2059    31.5761    14.4752 C.2     
 196 C196           7.2321     9.8652    11.7884 C.2     
 197 N197           6.0989    10.6351    11.6737 N.pl3   
 198 N198           7.3747     8.8011    11.0494 N.2     
 199 O199          26.6944    30.8185    13.6782 O.2     
 200 C200          11.4238    13.6275    14.1751 C.3     
 201 O201          19.3230    16.2706    13.4186 O.3     
 202 C202          21.0513    17.9589    13.3614 C.3     
 203 C203          21.3754    20.4666    18.1860 C.3     
 204 C204          22.4273    21.0234    19.1474 C.3     
 205 C205          21.7681    21.3568    20.4872 C.3     
 206 C206          23.5238    19.9786    19.3645 C.3     
 207 C207          28.9800    25.9126    20.0582 C.2     
 208 N208          29.7541    24.8046    18.3543 N.2     
 209 C209          30.7868    25.2163    19.0377 C.2     
 210 N210          30.3479    25.9119    20.1088 N.pl3   
 211 N211          27.1257    32.9081    14.2860 N.am    
 212 C212          30.4737    30.4754    17.2223 C.2     
 213 C213          31.9372    30.8221    17.1270 C.3     
 214 O214          29.6914    31.2720    17.6959 O.2     
 215 N215          32.1571    32.1654    17.6685 N.am    
 216 C216          32.7548    29.8084    17.9300 C.3     
 217 C217          33.2169    32.8913    17.2605 C.2     
 218 C218          33.4431    34.2732    17.8175 C.3     
 219 O219          33.9885    32.4324    16.4451 O.2     
 220 C220          33.6148    34.1894    19.3355 C.3     
 221 C221          34.7044    34.8742    17.1940 C.3     
 222 O222          34.8550    36.2259    17.6326 O.3     
 223 H223          28.1931    29.3794    17.7809 H       
 224 H224          26.4395    27.4731    17.0369 H       
 225 H225          27.8287    24.9798    16.4193 H       
 226 H226          25.9466    23.0834    16.7715 H       
 227 H227          23.2820    24.1727    16.2806 H       
 228 H228          21.8047    22.0114    15.6407 H       
 229 H229          22.8853    19.6129    16.9084 H       
 230 H230          20.7774    17.9383    17.0325 H       
 231 H231          18.8893    18.4971    14.8760 H       
 232 H232          17.0461    16.9509    14.9536 H       
 233 H233          17.3030    14.6809    16.7725 H       
 234 H234          14.8245    13.6253    16.8477 H       
 235 H235          14.1673    13.3303    14.0178 H       
 236 H236          12.1553    14.3888    16.0529 H       
 237 H237          13.0319    11.2683    13.6413 H       
 238 H238          11.9884     9.8703    15.9832 H       
 239 H239          12.1246     9.1163    13.0299 H       
 240 H240          11.3319     8.1369    14.2871 H       
 241 H241          12.6289     7.2560    15.8489 H       
 242 H242          14.2888     6.9979    15.8204 H       
 243 H243          20.9565    16.2607    14.6836 H       
 244 H244          15.4337    15.3494    18.2050 H       
 245 H245          16.6862    16.6133    18.2549 H       
 246 H246          14.5128    17.5286    17.8752 H       
 247 H247          13.2313    15.5284    13.4337 H       
 248 H248          11.9848    16.2800    14.4582 H       
 249 H249          13.6488    16.1043    15.0654 H       
 250 H250           9.8311    10.0372    14.8211 H       
 251 H251          10.6238    11.0166    13.5639 H       
 252 H252           9.9388     9.3653    11.8456 H       
 253 H253           9.1461     8.3859    13.1028 H       
 254 H254           8.1090    11.0096    13.2328 H       
 255 H255          23.0498    23.0401    14.0870 H       
 256 H256          24.3328    24.2727    14.0368 H       
 257 H257          24.7591    22.5489    14.1596 H       
 258 H258          26.5200    25.4873    19.1283 H       
 259 H259          27.0203    23.8865    18.5320 H       
 260 H260          30.6599    28.6430    16.4024 H       
 261 H261          28.3503    29.1323    14.7439 H       
 262 H262          26.8352    29.1736    15.6771 H       
 263 H263          27.4560    31.3952    16.5869 H       
 264 H264          28.9712    31.3539    15.6537 H       
 265 H265           5.9928    11.4271    12.2237 H       
 266 H266           5.4054    10.3864    11.0427 H       
 267 H267           6.6812     8.5524    10.4184 H       
 268 H268          11.2074    12.6287    14.5541 H       
 269 H269          10.5207    14.2364    14.2191 H       
 270 H270          11.7651    13.5581    13.1422 H       
 271 H271          18.7504    15.6687    13.9135 H       
 272 H272          21.7716    18.4944    13.9799 H       
 273 H273          21.5789    17.4140    12.5785 H       
 274 H274          20.3621    18.6708    12.9073 H       
 275 H275          20.5506    21.1741    18.1004 H       
 276 H276          21.0011    19.5166    18.5675 H       
 277 H277          22.8653    21.9269    18.7231 H       
 278 H278          21.3302    20.4533    20.9115 H       
 279 H279          22.5175    21.7535    21.1721 H       
 280 H280          20.9870    22.1012    20.3326 H       
 281 H281          23.9934    19.7411    18.4099 H       
 282 H282          24.2732    20.3753    20.0494 H       
 283 H283          23.0858    19.0751    19.7887 H       
 284 H284          28.3098    26.3785    20.7655 H       
 285 H285          31.8211    25.0291    18.7895 H       
 286 H286          30.8990    26.3327    20.7871 H       
 287 H287          27.5348    33.5141    14.9234 H       
 288 H288          26.6588    33.2608    13.5123 H       
 289 H289          32.2496    30.7955    16.0830 H       
 290 H290          31.5400    32.5325    18.3206 H       
 291 H291          32.4424    29.8350    18.9739 H       
 292 H292          32.5912    28.8089    17.5271 H       
 293 H293          33.8133    30.0591    17.8611 H       
 294 H294          32.5858    34.9042    17.5831 H       
 295 H295          34.4721    33.5583    19.5699 H       
 296 H296          33.7784    35.1889    19.7384 H       
 297 H297          32.7163    33.7612    19.7797 H       
 298 H298          35.5740    34.2934    17.5016 H       
 299 H299          34.6186    34.8522    16.1076 H       
 300 H300          35.6359    36.6706    17.2757 H       
@<TRIPOS>BOND
   1    1    2 1
   2    1   36 1
   3    1   66 1
   4    1   67 1
   5    2    3 1
   6    2   68 1
   7    2   69 1
   8    3    4 1
   9    3   70 1
  10    3   71 1
  11    4    5 1
  12    4   72 1
  13    4   73 1
  14    5    6 1
  15    5   74 1
  16    5   75 1
  17    6    7 1
  18    6   76 1
  19    6   77 1
  20    7    8 1
  21    7   78 1
  22    7   79 1
  23    8    9 1
  24    8   80 1
  25    8   81 1
  26    9   10 1
  27    9   82 1
  28    9   83 1
  29   10   11 1
  30   10   84 1
  31   10   85 1
  32   11   12 1
  33   11   86 1
  34   11   87 1
  35   12   13 1
  36   12   88 1
  37   12   89 1
  38   13   14 1
  39   13   90 1
  40   13   91 1
  41   14   15 1
  42   14   92 1
  43   14   93 1
  44   15   16 am
  45   15   17 2
  46   16   18 1
  47   16   37 1
  48   18   19 1
  49   18   94 1
  50   18   95 1
  51   19   20 am
  52   19   21 2
  53   20   22 1
  54   20   96 1
  55   22   23 1
  56   22   38 1
  57   22   97 1
  58   23   24 am
  59   23   25 2
  60   24   26 1
  61   24   98 1
  62   26   27 1
  63   26   39 1
  64   26   99 1
  65   27   28 2
  66   27   29 am
  67   29   30 1
  68   29  100 1
  69   30   31 1
  70   30   32 1
  71   30  101 1
  72   31   44 1
  73   31  102 1
  74   31  103 1
  75   32   33 2
  76   32   34 am
  77   34   35 1
  78   34  104 1
  79   35   50 1
  80   35   51 1
  81   35  105 1
  82   36  106 1
  83   36  107 1
  84   36  108 1
  85   38  109 1
  86   38  110 1
  87   38  111 1
  88   39   40 1
  89   39  112 1
  90   39  113 1
  91   40   41 1
  92   40  114 1
  93   40  115 1
  94   41   42 1
  95   41  116 1
  96   41  117 1
  97   42   43 1
  98   42  118 1
  99   42  119 1
 100   43  120 1
 101   43  121 1
 102   44   45 ar
 103   44   49 ar
 104   45   46 ar
 105   45  122 1
 106   46   47 ar
 107   46  123 1
 108   47   48 ar
 109   47  124 1
 110   48   49 ar
 111   48  125 1
 112   49  126 1
 113   50   56 2
 114   50   57 am
 115   51   52 1
 116   51  127 1
 117   51  128 1
 118   52   53 1
 119   52  129 1
 120   52  130 1
 121   53   54 1
 122   53  131 1
 123   53  132 1
 124   54   55 1
 125   54  133 1
 126   54  134 1
 127   55  135 1
 128   55  136 1
 129   57   58 1
 130   57  137 1
 131   58   59 1
 132   58   60 1
 133   58  138 1
 134   59   61 1
 135   59   62 1
 136   59  139 1
 137   60   63 2
 138   60   64 am
 139   61  140 1
 140   62  141 1
 141   62  142 1
 142   62  143 1
 143   64   65 1
 144   64  144 1
 145   65  145 1
 146   65  146 1
 147   65  147 1
 148  148  149 1
 149  148  192 1
 150  148  193 1
 151  148  223 1
 152  149  150 am
 153  149  191 2
 154  150  151 1
 155  150  224 1
 156  151  152 1
 157  151  189 1
 158  151  225 1
 159  152  153 am
 160  152  188 2
 161  153  154 1
 162  153  226 1
 163  154  155 1
 164  154  187 1
 165  154  227 1
 166  155  156 am
 167  155  157 2
 168  156  158 1
 169  156  228 1
 170  158  159 1
 171  158  203 1
 172  158  229 1
 173  159  160 am
 174  159  161 2
 175  160  162 1
 176  160  230 1
 177  162  163 1
 178  162  180 1
 179  162  231 1
 180  163  164 am
 181  163  165 2
 182  164  166 1
 183  164  232 1
 184  166  167 1
 185  166  181 1
 186  166  233 1
 187  167  168 2
 188  167  169 am
 189  169  170 1
 190  169  234 1
 191  170  171 1
 192  170  172 1
 193  170  235 1
 194  171  183 1
 195  171  200 1
 196  171  236 1
 197  172  173 2
 198  172  174 am
 199  174  175 1
 200  174  237 1
 201  175  176 1
 202  175  177 1
 203  175  238 1
 204  176  184 1
 205  176  239 1
 206  176  240 1
 207  177  178 2
 208  177  179 am
 209  179  241 1
 210  179  242 1
 211  180  201 1
 212  180  202 1
 213  180  243 1
 214  181  182 1
 215  181  244 1
 216  181  245 1
 217  182  246 1
 218  183  247 1
 219  183  248 1
 220  183  249 1
 221  184  185 1
 222  184  250 1
 223  184  251 1
 224  185  186 1
 225  185  252 1
 226  185  253 1
 227  186  196 1
 228  186  254 1
 229  187  255 1
 230  187  256 1
 231  187  257 1
 232  189  190 1
 233  189  258 1
 234  189  259 1
 235  190  207 2
 236  190  208 1
 237  192  212 am
 238  192  260 1
 239  193  194 1
 240  193  261 1
 241  193  262 1
 242  194  195 1
 243  194  263 1
 244  194  264 1
 245  195  199 2
 246  195  211 am
 247  196  197 1
 248  196  198 2
 249  197  265 1
 250  197  266 1
 251  198  267 1
 252  200  268 1
 253  200  269 1
 254  200  270 1
 255  201  271 1
 256  202  272 1
 257  202  273 1
 258  202  274 1
 259  203  204 1
 260  203  275 1
 261  203  276 1
 262  204  205 1
 263  204  206 1
 264  204  277 1
 265  205  278 1
 266  205  279 1
 267  205  280 1
 268  206  281 1
 269  206  282 1
 270  206  283 1
 271  207  210 1
 272  207  284 1
 273  208  209 2
 274  209  210 1
 275  209  285 1
 276  210  286 1
 277  211  287 1
 278  211  288 1
 279  212  213 1
 280  212  214 2
 281  213  215 1
 282  213  216 1
 283  213  289 1
 284  215  217 am
 285  215  290 1
 286  216  291 1
 287  216  292 1
 288  216  293 1
 289  217  218 1
 290  217  219 2
 291  218  220 1
 292  218  221 1
 293  218  294 1
 294  220  295 1
 295  220  296 1
 296  220  297 1
 297  221  222 1
 298  221  298 1
 299  221  299 1
 300  222  300 1

#	End of record

