#	Name: ASD01883500
#	Creating user name:	WinNT
#	Creation time:	15. 06. 2019 19:46

#	Modifying user name:	WinNT
#	Modification time:	15. 06. 2019 19:46

#	Program:	/corina/corina34_cracker 3.40 0067  02.08.2006

@<TRIPOS>MOLECULE
ASD01883500
  47   48    0    0    0
SMALL
NO_CHARGES


@<TRIPOS>ATOM
   1 N1            -0.0162     1.3417     0.0094 N.am    
   2 C2             0.0021    -0.0041     0.0020 C.2     
   3 C3            -1.2166    -0.7275     0.0102 C.2     
   4 C4            -2.4257    -0.0118     0.0261 C.2     
   5 C5            -2.3786     1.3954     0.0332 C.2     
   6 C6            -1.1848     2.0319     0.0299 C.2     
   7 O7             1.0656    -0.6000    -0.0121 O.2     
   8 C8            -1.2158    -2.1595     0.0021 C.1     
   9 N9            -1.2152    -3.2954    -0.0044 N.1     
  10 C10            1.2511     2.0766     0.0013 C.3     
  11 C11            1.6785     2.3402    -1.4440 C.3     
  12 C12            3.0021     3.1077    -1.4525 C.3     
  13 C13            3.4926     3.2625    -2.8934 C.3     
  14 C14            2.7933     4.4912    -0.8334 C.3     
  15 C15           -3.7229    -0.7230     0.0347 C.ar    
  16 C16           -4.5811    -0.6246     1.1360 C.ar    
  17 C17           -5.7830    -1.3095     1.0942 C.ar    
  18 C18           -6.0949    -2.0619    -0.0237 C.ar    
  19 N19           -5.2661    -2.1364    -1.0477 N.ar    
  20 C20           -4.1141    -1.4987    -1.0577 C.ar    
  21 C21           -7.4025    -2.8094    -0.0726 C.3     
  22 C22           -8.1739    -2.4058    -1.3308 C.3     
  23 C23           -9.5014    -3.1648    -1.3806 C.3     
  24 O24          -10.2219    -2.7878    -2.5557 O.3     
  25 H25           -3.2952     1.9665     0.0450 H       
  26 H26           -1.1613     3.1116     0.0358 H       
  27 H27            1.1240     3.0260     0.5214 H       
  28 H28            2.0167     1.4862     0.5046 H       
  29 H29            1.8057     1.3908    -1.9642 H       
  30 H30            0.9129     2.9306    -1.9474 H       
  31 H31            3.7443     2.5586    -0.8731 H       
  32 H32            2.7504     3.8116    -3.4729 H       
  33 H33            4.4355     3.8093    -2.8995 H       
  34 H34            3.6413     2.2769    -3.3345 H       
  35 H35            2.4439     4.3809     0.1931 H       
  36 H36            3.7363     5.0380    -0.8395 H       
  37 H37            2.0512     5.0403    -1.4129 H       
  38 H38           -4.3121    -0.0299     1.9965 H       
  39 H39           -6.4700    -1.2572     1.9258 H       
  40 H40           -3.4624    -1.5839    -1.9147 H       
  41 H41           -7.2075    -3.8816    -0.0943 H       
  42 H42           -7.9938    -2.5655     0.8099 H       
  43 H43           -8.3689    -1.3336    -1.3092 H       
  44 H44           -7.5826    -2.6498    -2.2134 H       
  45 H45           -9.3064    -4.2369    -1.4022 H       
  46 H46          -10.0927    -2.9208    -0.4980 H       
  47 H47          -11.0757    -3.2312    -2.6527 H       
@<TRIPOS>BOND
   1    1    2 am
   2    1   10 1
   3    1    6 1
   4    2    3 1
   5    2    7 2
   6    3    4 2
   7    3    8 1
   8    4    5 1
   9    4   15 1
  10    5    6 2
  11    5   25 1
  12    6   26 1
  13    8    9 3
  14   10   11 1
  15   10   27 1
  16   10   28 1
  17   11   12 1
  18   11   29 1
  19   11   30 1
  20   12   13 1
  21   12   14 1
  22   12   31 1
  23   13   32 1
  24   13   33 1
  25   13   34 1
  26   14   35 1
  27   14   36 1
  28   14   37 1
  29   15   16 ar
  30   15   20 ar
  31   16   17 ar
  32   16   38 1
  33   17   18 ar
  34   17   39 1
  35   18   19 ar
  36   18   21 1
  37   19   20 ar
  38   20   40 1
  39   21   22 1
  40   21   41 1
  41   21   42 1
  42   22   23 1
  43   22   43 1
  44   22   44 1
  45   23   24 1
  46   23   45 1
  47   23   46 1
  48   24   47 1

#	End of record

