#	Name: ASD01900818
#	Creating user name:	WinNT
#	Creation time:	15. 06. 2019 19:52

#	Modifying user name:	WinNT
#	Modification time:	15. 06. 2019 19:52

#	Program:	/corina/corina34_cracker 3.40 0067  02.08.2006

@<TRIPOS>MOLECULE
ASD01900818
  48   51    0    0    0
SMALL
NO_CHARGES


@<TRIPOS>ATOM
   1 N1             0.6520     1.6045     0.5513 N.am    
   2 C2             1.0414     0.2856     0.8124 C.ar    
   3 C3             2.7742    -1.3391     1.1467 C.ar    
   4 C4             2.3896    -0.0381     0.8891 C.ar    
   5 C5             0.0790    -0.6984     1.0005 C.ar    
   6 C6             0.4634    -1.9995     1.2586 C.ar    
   7 C7             1.8132    -2.3238     1.3300 C.ar    
   8 Cl8           -0.7388    -3.2295     1.4943 Cl      
   9 C9             1.3538     2.3540    -0.3219 C.2     
  10 C10            0.9099     3.7260    -0.6408 C.ar    
  11 O11            2.3523     1.9005    -0.8470 O.2     
  12 C12            1.5687     4.4571    -1.6387 C.ar    
  13 C13            1.1328     5.7514    -1.9244 C.ar    
  14 C14            0.0652     6.2595    -1.2078 C.ar    
  15 C15           -0.5380     5.4765    -0.2336 C.ar    
  16 N16           -0.1151     4.2580     0.0163 N.ar    
  17 N17            2.6373     3.9029    -2.3310 N.pl3   
  18 N18            2.2037    -3.6440     1.5910 N.am    
  19 C19            2.8433    -5.8810     1.2809 C.3     
  20 C20            2.4308    -4.5703     0.6418 C.2     
  21 C21            2.4241    -4.1933     2.9370 C.3     
  22 C22            3.2100    -5.4918     2.7186 C.3     
  23 O23            2.3207    -4.3836    -0.5516 O.2     
  24 C24            2.7873    -6.5757     3.7145 C.3     
  25 C25            4.7138    -5.2741     2.8754 C.3     
  26 C26            5.1741    -6.2425     3.9888 C.3     
  27 C27            4.0980    -7.3579     3.9925 C.3     
  28 H28           -0.1252     1.9778     0.9957 H       
  29 H29            3.8229    -1.5904     1.2056 H       
  30 H30            3.1376     0.7279     0.7470 H       
  31 H31           -0.9696    -0.4458     0.9453 H       
  32 H32            1.6181     6.3425    -2.6870 H       
  33 H33           -0.2963     7.2581    -1.4043 H       
  34 H34           -1.3719     5.8741     0.3258 H       
  35 H35            2.7421     2.9394    -2.3708 H       
  36 H36            3.2789     4.4792    -2.7749 H       
  37 H37            2.0136    -6.5879     1.2732 H       
  38 H38            3.7090    -6.3005     0.7683 H       
  39 H39            3.0063    -3.4959     3.5392 H       
  40 H40            1.4701    -4.4055     3.4195 H       
  41 H41            2.4086    -6.1254     4.6321 H       
  42 H42            2.0375    -7.2311     3.2712 H       
  43 H43            5.2256    -5.5061     1.9414 H       
  44 H44            4.9149    -4.2436     3.1679 H       
  45 H45            6.1535    -6.6581     3.7519 H       
  46 H46            5.1981    -5.7325     4.9519 H       
  47 H47            4.0552    -7.8494     4.9644 H       
  48 H48            4.2904    -8.0821     3.2009 H       
@<TRIPOS>BOND
   1    1    2 1
   2    1    9 am
   3    1   28 1
   4    2    5 ar
   5    2    4 ar
   6    3    4 ar
   7    3    7 ar
   8    3   29 1
   9    4   30 1
  10    5    6 ar
  11    5   31 1
  12    6    7 ar
  13    6    8 1
  14    7   18 1
  15    9   10 1
  16    9   11 2
  17   10   12 ar
  18   10   16 ar
  19   12   13 ar
  20   12   17 1
  21   13   14 ar
  22   13   32 1
  23   14   15 ar
  24   14   33 1
  25   15   16 ar
  26   15   34 1
  27   17   35 1
  28   17   36 1
  29   18   21 1
  30   18   20 am
  31   19   20 1
  32   19   22 1
  33   19   37 1
  34   19   38 1
  35   20   23 2
  36   21   22 1
  37   21   39 1
  38   21   40 1
  39   22   25 1
  40   22   24 1
  41   24   27 1
  42   24   41 1
  43   24   42 1
  44   25   26 1
  45   25   43 1
  46   25   44 1
  47   26   27 1
  48   26   45 1
  49   26   46 1
  50   27   47 1
  51   27   48 1

#	End of record

