#	Name: ASD05173009
#	Creating user name:	WinNT
#	Creation time:	15. 06. 2019 20:57

#	Modifying user name:	WinNT
#	Modification time:	15. 06. 2019 20:57

#	Program:	/corina/corina34_cracker 3.40 0067  02.08.2006

@<TRIPOS>MOLECULE
ASD05173009
  35   37    0    0    0
SMALL
NO_CHARGES


@<TRIPOS>ATOM
   1 C1            -0.0170     1.3988     0.0097 C.ar    
   2 C2             0.0021    -0.0041     0.0020 C.ar    
   3 C3            -1.2004    -0.7094     0.0044 C.ar    
   4 C4            -2.4236    -0.0276     0.0158 C.ar    
   5 C5            -2.4304     1.3708     0.0311 C.ar    
   6 C6            -1.2176     2.0673     0.0305 C.ar    
   7 N7            -3.5478    -0.7897     0.0065 N.2     
   8 C8            -4.6079    -0.5832     0.6965 C.2     
   9 C9            -4.7381     0.6010     1.6178 C.3     
  10 C10           -4.6702     1.8543     0.7821 C.2     
  11 N11           -3.5855     2.1307     0.0572 N.am    
  12 O12           -5.6117     2.6187     0.7691 O.2     
  13 C13           -5.7312    -1.5311     0.5849 C.ar    
  14 C14           -6.9082    -1.3422     1.3218 C.ar    
  15 C15           -7.9397    -2.2533     1.1900 C.ar    
  16 N16           -7.8319    -3.2901     0.3867 N.ar    
  17 C17           -6.7373    -3.5127    -0.3325 C.ar    
  18 C18           -5.6536    -2.6416    -0.2647 C.ar    
  19 C19            1.2808    -0.7250    -0.0090 C.2     
  20 C20            1.2962    -2.2319    -0.0172 C.3     
  21 Cl21           1.4736     2.2887     0.0003 Cl      
  22 O22            2.3251    -0.1078    -0.0114 O.2     
  23 C23           -6.6740    -4.6571    -1.1909 C.1     
  24 N24           -6.6237    -5.5650    -1.8719 N.1     
  25 H25           -1.1886    -1.7893    -0.0030 H       
  26 H26           -1.2248     3.1472     0.0380 H       
  27 H27           -5.6940     0.5579     2.1397 H       
  28 H28           -3.9226     0.5961     2.3410 H       
  29 H29           -3.6083     2.9280    -0.4949 H       
  30 H30           -7.0080    -0.4956     1.9848 H       
  31 H31           -8.8487    -2.1120     1.7559 H       
  32 H32           -4.7646    -2.8242    -0.8501 H       
  33 H33            1.2943    -2.5896    -1.0468 H       
  34 H34            2.1927    -2.5889     0.4897 H       
  35 H35            0.4129    -2.6071     0.4995 H       
@<TRIPOS>BOND
   1    1    2 ar
   2    1   21 1
   3    1    6 ar
   4    2    3 ar
   5    2   19 1
   6    3    4 ar
   7    3   25 1
   8    4    5 ar
   9    4    7 1
  10    5    6 ar
  11    5   11 1
  12    6   26 1
  13    7    8 2
  14    8    9 1
  15    8   13 1
  16    9   10 1
  17    9   27 1
  18    9   28 1
  19   10   11 am
  20   10   12 2
  21   11   29 1
  22   13   14 ar
  23   13   18 ar
  24   14   15 ar
  25   14   30 1
  26   15   16 ar
  27   15   31 1
  28   16   17 ar
  29   17   18 ar
  30   17   23 1
  31   18   32 1
  32   19   20 1
  33   19   22 2
  34   20   33 1
  35   20   34 1
  36   20   35 1
  37   23   24 3

#	End of record

