#	Name: ASD01680009
#	Creating user name:	WinNT
#	Creation time:	15. 06. 2019 19:22

#	Modifying user name:	WinNT
#	Modification time:	15. 06. 2019 19:22

#	Program:	/corina/corina34_cracker 3.40 0067  02.08.2006

@<TRIPOS>MOLECULE
ASD01680009
 109  113    0    0    0
SMALL
NO_CHARGES


@<TRIPOS>ATOM
   1 C1            -0.0820     1.2540     0.5124 C.ar    
   2 C2             0.0053     0.0161    -0.1085 C.ar    
   3 C3            -1.1147    -0.5491    -0.6902 C.ar    
   4 C4            -2.3266     0.1146    -0.6573 C.ar    
   5 C5            -2.4258     1.3535    -0.0388 C.ar    
   6 C6            -1.3023     1.9251     0.5537 C.ar    
   7 N7             1.0528     1.8249     1.1014 N.pl3   
   8 S8            -1.4207     3.4972     1.3405 S.3     
   9 C9            -1.8494     3.0669     3.0498 C.3     
  10 C10           -1.9906     4.3459     3.8776 C.3     
  11 N11           -2.3378     3.9974     5.2618 N.3     
  12 N12           -3.6547     2.0252    -0.0062 N.am    
  13 C13           -4.8057     1.3287    -0.0873 C.2     
  14 C14           -6.1026     2.0261     0.0443 C.ar    
  15 O15           -4.7774     0.1269    -0.2687 O.2     
  16 C16           -7.2931     1.3070    -0.0394 C.ar    
  17 C17           -8.5127     1.9690     0.0852 C.ar    
  18 C18           -8.5374     3.3495     0.2933 C.ar    
  19 C19           -7.3512     4.0610     0.3755 C.ar    
  20 C20           -6.1360     3.4054     0.2583 C.ar    
  21 C21           -9.7789     1.2110    -0.0033 C.2     
  22 N22          -10.9581     1.8523     0.1174 N.am    
  23 O23           -9.7564     0.0091    -0.1849 O.2     
  24 C24          -12.1574     1.1570    -0.0842 C.ar    
  25 C25          -12.1760     0.0178    -0.8774 C.ar    
  26 C26          -13.3586    -0.6691    -1.0771 C.ar    
  27 C27          -14.5293    -0.2263    -0.4892 C.ar    
  28 C28          -14.5227     0.9111     0.3055 C.ar    
  29 C29          -13.3324     1.6041     0.5154 C.ar    
  30 S30          -13.3163     3.0489     1.5239 S.3     
  31 C31          -12.9833     2.3870     3.1797 C.3     
  32 C32          -12.9372     3.5364     4.1886 C.3     
  33 N33          -12.6676     3.0004     5.5295 N.3     
  34 C34            2.3339     1.1152     1.0624 C.3     
  35 C35            3.0351     1.4154    -0.2373 C.2     
  36 C36            3.2075     1.5752     2.2313 C.3     
  37 O37            4.2343     0.8699    -0.4945 O.3     
  38 O38            2.5178     2.1470    -1.0479 O.2     
  39 C39            2.5641     1.1655     3.5310 C.ar    
  40 C40            2.8620    -0.0619     4.0929 C.ar    
  41 C41            2.2718    -0.4378     5.2851 C.ar    
  42 C42            1.3840     0.4138     5.9155 C.ar    
  43 C43            1.0868     1.6416     5.3540 C.ar    
  44 C44            1.6803     2.0193     4.1641 C.ar    
  45 N45          -15.7091     1.3585     0.8997 N.pl3   
  46 O46           -7.3796     5.4049     0.5773 O.3     
  47 C47           -6.1205     6.0764     0.6520 C.3     
  48 C48           -6.3525     7.5713     0.8806 C.3     
  49 N49           -6.9797     7.7744     2.1934 N.3     
  50 C50          -18.1137     2.6343    -0.2010 C.ar    
  51 C51          -18.7671     2.4248    -1.4011 C.ar    
  52 C52          -18.7383     3.3976    -2.3827 C.ar    
  53 C53          -18.0565     4.5801    -2.1642 C.ar    
  54 C54          -17.4039     4.7899    -0.9638 C.ar    
  55 C55          -17.4363     3.8189     0.0195 C.ar    
  56 C56          -18.1451     1.5737     0.8692 C.3     
  57 C57          -16.9588     0.6256     0.6825 C.3     
  58 C58          -17.0577    -0.5040     1.6751 C.2     
  59 O59          -18.1266    -1.3159     1.6636 O.3     
  60 O60          -16.1748    -0.6790     2.4811 O.2     
  61 H61            0.9499    -0.5067    -0.1379 H       
  62 H62           -1.0421    -1.5128    -1.1724 H       
  63 H63           -3.1979    -0.3313    -1.1138 H       
  64 H64            0.9907     2.6902     1.5352 H       
  65 H65           -2.7925     2.5206     3.0613 H       
  66 H66           -1.0631     2.4435     3.4756 H       
  67 H67           -1.0475     4.8922     3.8660 H       
  68 H68           -2.7768     4.9693     3.4517 H       
  69 H69           -2.4368     4.8258     5.8292 H       
  70 H70           -3.1748     3.4349     5.2940 H       
  71 H71           -3.6773     2.9915     0.0748 H       
  72 H72           -7.2705     0.2394    -0.2008 H       
  73 H73           -9.4823     3.8634     0.3900 H       
  74 H74           -5.2137     3.9636     0.3232 H       
  75 H75          -10.9764     2.7953     0.3438 H       
  76 H76          -11.2647    -0.3322    -1.3395 H       
  77 H77          -13.3684    -1.5549    -1.6949 H       
  78 H78          -15.4507    -0.7666    -0.6493 H       
  79 H79          -13.7740     1.6904     3.4584 H       
  80 H80          -12.0252     1.8672     3.1773 H       
  81 H81          -12.1465     4.2330     3.9099 H       
  82 H82          -13.8953     4.0563     4.1910 H       
  83 H83          -12.6323     3.7406     6.2143 H       
  84 H84          -13.3515     2.3039     5.7847 H       
  85 H85            2.1575     0.0425     1.1408 H       
  86 H86            4.1922     1.1146     2.1522 H       
  87 H87            3.3105     2.6600     2.2030 H       
  88 H88            4.6450     1.0918    -1.3413 H       
  89 H89            3.5556    -0.7272     3.6003 H       
  90 H90            2.5040    -1.3970     5.7237 H       
  91 H91            0.9224     0.1199     6.8466 H       
  92 H92            0.3930     2.3068     5.8464 H       
  93 H93            1.4481     2.9785     3.7254 H       
  94 H94          -15.7034     2.1538     1.4551 H       
  95 H95           -5.5395     5.6683     1.4791 H       
  96 H96           -5.5756     5.9318    -0.2809 H       
  97 H97           -5.3978     8.0962     0.8490 H       
  98 H98           -7.0072     7.9608     0.1010 H       
  99 H99           -7.1435     8.7546     2.3682 H       
 100 H100          -7.8354     7.2454     2.2710 H       
 101 H101         -19.2998     1.5009    -1.5718 H       
 102 H102         -19.2482     3.2336    -3.3206 H       
 103 H103         -18.0334     5.3398    -2.9315 H       
 104 H104         -16.8709     5.7136    -0.7932 H       
 105 H105         -16.9265     3.9829     0.9574 H       
 106 H106         -18.0826     2.0453     1.8499 H       
 107 H107         -19.0754     1.0106     0.7954 H       
 108 H108         -16.9721     0.2220    -0.3299 H       
 109 H109         -18.1453    -2.0263     2.3194 H       
@<TRIPOS>BOND
   1    1    2 ar
   2    1    7 1
   3    1    6 ar
   4    2    3 ar
   5    2   61 1
   6    3    4 ar
   7    3   62 1
   8    4    5 ar
   9    4   63 1
  10    5    6 ar
  11    5   12 1
  12    6    8 1
  13    7   34 1
  14    7   64 1
  15    8    9 1
  16    9   10 1
  17    9   65 1
  18    9   66 1
  19   10   11 1
  20   10   67 1
  21   10   68 1
  22   11   69 1
  23   11   70 1
  24   12   13 am
  25   12   71 1
  26   13   14 1
  27   13   15 2
  28   14   16 ar
  29   14   20 ar
  30   16   17 ar
  31   16   72 1
  32   17   18 ar
  33   17   21 1
  34   18   19 ar
  35   18   73 1
  36   19   20 ar
  37   19   46 1
  38   20   74 1
  39   21   22 am
  40   21   23 2
  41   22   24 1
  42   22   75 1
  43   24   25 ar
  44   24   29 ar
  45   25   26 ar
  46   25   76 1
  47   26   27 ar
  48   26   77 1
  49   27   28 ar
  50   27   78 1
  51   28   29 ar
  52   28   45 1
  53   29   30 1
  54   30   31 1
  55   31   32 1
  56   31   79 1
  57   31   80 1
  58   32   33 1
  59   32   81 1
  60   32   82 1
  61   33   83 1
  62   33   84 1
  63   34   35 1
  64   34   36 1
  65   34   85 1
  66   35   37 1
  67   35   38 2
  68   36   39 1
  69   36   86 1
  70   36   87 1
  71   37   88 1
  72   39   40 ar
  73   39   44 ar
  74   40   41 ar
  75   40   89 1
  76   41   42 ar
  77   41   90 1
  78   42   43 ar
  79   42   91 1
  80   43   44 ar
  81   43   92 1
  82   44   93 1
  83   45   57 1
  84   45   94 1
  85   46   47 1
  86   47   48 1
  87   47   95 1
  88   47   96 1
  89   48   49 1
  90   48   97 1
  91   48   98 1
  92   49   99 1
  93   49  100 1
  94   50   51 ar
  95   50   56 1
  96   50   55 ar
  97   51   52 ar
  98   51  101 1
  99   52   53 ar
 100   52  102 1
 101   53   54 ar
 102   53  103 1
 103   54   55 ar
 104   54  104 1
 105   55  105 1
 106   56   57 1
 107   56  106 1
 108   56  107 1
 109   57   58 1
 110   57  108 1
 111   58   59 1
 112   58   60 2
 113   59  109 1

#	End of record

