#	Name: ASD02910001
#	Creating user name:	WinNT
#	Creation time:	15. 06. 2019 20:26

#	Modifying user name:	WinNT
#	Modification time:	15. 06. 2019 20:26

#	Program:	/corina/corina34_cracker 3.40 0067  02.08.2006

@<TRIPOS>MOLECULE
ASD02910001
  61   65    0    0    0
SMALL
NO_CHARGES


@<TRIPOS>ATOM
   1 C1            -0.0170     1.4025     0.0098 C.ar    
   2 C2             0.0021    -0.0041     0.0020 C.ar    
   3 C3            -1.1985    -0.7171     0.0100 C.ar    
   4 C4            -2.3871    -0.0437     0.0254 C.ar    
   5 C5            -2.4113     1.3444     0.0326 C.ar    
   6 C6            -1.2389     2.0675     0.0301 C.ar    
   7 N7             1.2929     1.8266    -0.0005 N.pl3   
   8 C8             2.1317     0.7456    -0.0143 C.2     
   9 C9             1.4152    -0.3896    -0.0135 C.2     
  10 C10            1.9611    -1.7942    -0.0263 C.3     
  11 C11            2.0144    -2.3076    -1.4666 C.3     
  12 N12            0.6494    -2.4163    -1.9985 N.3     
  13 C13            2.6732    -3.6627    -1.4928 C.2     
  14 O14            1.9970    -4.6620    -1.5575 O.2     
  15 O15            4.0111    -3.7596    -1.4442 O.3     
  16 P16            4.6382    -5.2421    -1.4765 P.3     
  17 O17            6.2335    -5.1544    -1.2784 O.3     
  18 O18            4.0493    -6.0508    -0.3858 O.2     
  19 O19            4.3106    -5.9327    -2.8936 O.3     
  20 C20            7.0673    -6.3086    -1.1565 C.3     
  21 C21            8.5226    -5.8702    -0.9812 C.3     
  22 C22            9.4574    -7.1000    -0.9727 C.3     
  23 C23           10.5381    -6.7430     0.0722 C.3     
  24 C24           10.1284    -5.3397     0.5715 C.3     
  25 O25            8.7101    -5.2553     0.3121 O.3     
  26 O26           10.0485    -7.2885    -2.2600 O.3     
  27 O27           11.8296    -6.7001    -0.5378 O.3     
  28 N28           10.3928    -5.2117     2.0068 N.pl3   
  29 C29            9.4987    -5.4236     3.0137 C.2     
  30 N30           10.0698    -5.2206     4.1654 N.2     
  31 C31           11.3629    -4.8666     3.9713 C.ar    
  32 C32           11.5874    -4.8624     2.5841 C.ar    
  33 C33           12.4345    -4.5353     4.8176 C.ar    
  34 N34           13.6049    -4.2291     4.2672 N.ar    
  35 C35           13.7663    -4.2334     2.9567 C.ar    
  36 N36           12.7935    -4.5440     2.1259 N.ar    
  37 N37           12.2749    -4.5277     6.1922 N.pl3   
  38 H38           -1.1874    -1.7970     0.0038 H       
  39 H39           -3.3154    -0.5956     0.0316 H       
  40 H40           -3.3589     1.8625     0.0444 H       
  41 H41           -1.2681     3.1471     0.0357 H       
  42 H42            1.5785     2.7536     0.0015 H       
  43 H43            3.2104     0.7979    -0.0243 H       
  44 H44            2.9651    -1.7977     0.3981 H       
  45 H45            1.3140    -2.4409     0.5663 H       
  46 H46            2.5887    -1.6125    -2.0791 H       
  47 H47            0.6604    -2.6918    -2.9691 H       
  48 H48            0.0964    -3.0556    -1.4474 H       
  49 H49            4.6669    -5.4554    -3.6554 H       
  50 H50            6.7564    -6.8915    -0.2895 H       
  51 H51            6.9773    -6.9184    -2.0555 H       
  52 H52            8.8090    -5.1814    -1.7759 H       
  53 H53            8.9113    -7.9927    -0.6677 H       
  54 H54           10.5263    -7.4592     0.8938 H       
  55 H55           10.6623    -4.5686     0.0162 H       
  56 H56           10.6452    -8.0477    -2.3114 H       
  57 H57           12.1111    -7.5415    -0.9223 H       
  58 H58            8.4684    -5.7166     2.8760 H       
  59 H59           14.7343    -3.9782     2.5514 H       
  60 H60           11.4156    -4.7527     6.5820 H       
  61 H61           13.0223    -4.2972     6.7660 H       
@<TRIPOS>BOND
   1    1    2 ar
   2    1    7 1
   3    1    6 ar
   4    2    3 ar
   5    2    9 1
   6    3    4 ar
   7    3   38 1
   8    4    5 ar
   9    4   39 1
  10    5    6 ar
  11    5   40 1
  12    6   41 1
  13    7    8 1
  14    7   42 1
  15    8    9 2
  16    8   43 1
  17    9   10 1
  18   10   11 1
  19   10   44 1
  20   10   45 1
  21   11   12 1
  22   11   13 1
  23   11   46 1
  24   12   47 1
  25   12   48 1
  26   13   14 2
  27   13   15 1
  28   15   16 1
  29   16   17 1
  30   16   18 2
  31   16   19 1
  32   17   20 1
  33   19   49 1
  34   20   21 1
  35   20   50 1
  36   20   51 1
  37   21   22 1
  38   21   25 1
  39   21   52 1
  40   22   23 1
  41   22   26 1
  42   22   53 1
  43   23   24 1
  44   23   27 1
  45   23   54 1
  46   24   25 1
  47   24   28 1
  48   24   55 1
  49   26   56 1
  50   27   57 1
  51   28   29 1
  52   28   32 1
  53   29   30 2
  54   29   58 1
  55   30   31 1
  56   31   32 ar
  57   31   33 ar
  58   32   36 ar
  59   33   34 ar
  60   33   37 1
  61   34   35 ar
  62   35   36 ar
  63   35   59 1
  64   37   60 1
  65   37   61 1

#	End of record

