#	Name: ASD01885397
#	Creating user name:	WinNT
#	Creation time:	15. 06. 2019 19:49

#	Modifying user name:	WinNT
#	Modification time:	15. 06. 2019 19:49

#	Program:	/corina/corina34_cracker 3.40 0067  02.08.2006

@<TRIPOS>MOLECULE
ASD01885397
  46   49    0    0    0
SMALL
NO_CHARGES


@<TRIPOS>ATOM
   1 C1            -0.0169     1.3917     0.0097 C.ar    
   2 C2             0.0021    -0.0041     0.0020 C.ar    
   3 N3            -1.1139    -0.7738     0.0203 N.2     
   4 C4            -2.1904    -0.5693    -0.6465 C.2     
   5 C5            -2.3522     0.6311    -1.5419 C.3     
   6 C6            -2.2800     1.8695    -0.6847 C.2     
   7 N7            -1.1829     2.1456     0.0191 N.am    
   8 C8             1.1870     2.0928     0.0020 C.ar    
   9 C9             2.4010     1.4167    -0.0188 C.ar    
  10 C10            2.4182     0.0204    -0.0322 C.ar    
  11 C11            1.2376    -0.6782    -0.0217 C.ar    
  12 C12           -3.2980    -1.5346    -0.5340 C.ar    
  13 C13           -3.1934    -2.6685     0.2874 C.ar    
  14 C14           -4.2759    -3.5284     0.3406 C.ar    
  15 N15           -5.3596    -3.2699    -0.3670 N.ar    
  16 N16           -5.4633    -2.2366    -1.1198 N.ar    
  17 C17           -4.4952    -1.3505    -1.2386 C.ar    
  18 O18           -3.2298     2.6223    -0.6368 O.2     
  19 C19            3.6742     2.1757    -0.0273 C.ar    
  20 C20            3.6562     3.5695    -0.0145 C.ar    
  21 C21            4.8421     4.2755    -0.0224 C.ar    
  22 C22            6.0534     3.6011    -0.0427 C.ar    
  23 C23            6.0776     2.2082    -0.0556 C.ar    
  24 C24            4.8923     1.4964    -0.0424 C.ar    
  25 O25            7.2668     1.5488    -0.0759 O.3     
  26 C26            7.2166     0.1207    -0.0882 C.3     
  27 O27            7.2193     4.3003    -0.0504 O.3     
  28 C28            7.1211     5.7258    -0.0368 C.3     
  29 H29           -1.5521     0.6486    -2.2819 H       
  30 H30           -3.3183     0.5874    -2.0447 H       
  31 H31           -1.2003     2.9336     0.5845 H       
  32 H32            1.1766     3.1727     0.0119 H       
  33 H33            3.3596    -0.5087    -0.0509 H       
  34 H34            1.2563    -1.7580    -0.0319 H       
  35 H35           -2.2976    -2.8631     0.8585 H       
  36 H36           -4.2341    -4.4115     0.9610 H       
  37 H37           -4.6201    -0.4925    -1.8825 H       
  38 H38            2.7140     4.0971     0.0013 H       
  39 H39            4.8266     5.3553    -0.0131 H       
  40 H40            4.9095     0.4166    -0.0520 H       
  41 H41            8.2308    -0.2783    -0.1041 H       
  42 H42            6.7011    -0.2324     0.8049 H       
  43 H43            6.6797    -0.2163    -0.9749 H       
  44 H44            6.5729     6.0607    -0.9174 H       
  45 H45            6.5941     6.0451     0.8624 H       
  46 H46            8.1212     6.1590    -0.0449 H       
@<TRIPOS>BOND
   1    1    2 ar
   2    1    8 ar
   3    1    7 1
   4    2    3 1
   5    2   11 ar
   6    3    4 2
   7    4    5 1
   8    4   12 1
   9    5    6 1
  10    5   29 1
  11    5   30 1
  12    6    7 am
  13    6   18 2
  14    7   31 1
  15    8    9 ar
  16    8   32 1
  17    9   10 ar
  18    9   19 1
  19   10   11 ar
  20   10   33 1
  21   11   34 1
  22   12   13 ar
  23   12   17 ar
  24   13   14 ar
  25   13   35 1
  26   14   15 ar
  27   14   36 1
  28   15   16 ar
  29   16   17 ar
  30   17   37 1
  31   19   20 ar
  32   19   24 ar
  33   20   21 ar
  34   20   38 1
  35   21   22 ar
  36   21   39 1
  37   22   23 ar
  38   22   27 1
  39   23   24 ar
  40   23   25 1
  41   24   40 1
  42   25   26 1
  43   26   41 1
  44   26   42 1
  45   26   43 1
  46   27   28 1
  47   28   44 1
  48   28   45 1
  49   28   46 1

#	End of record

