#	Name: ASD01816371
#	Creating user name:	WinNT
#	Creation time:	15. 06. 2019 19:35

#	Modifying user name:	WinNT
#	Modification time:	15. 06. 2019 19:35

#	Program:	/corina/corina34_cracker 3.40 0067  02.08.2006

@<TRIPOS>MOLECULE
ASD01816371
  72   78    0    0    0
SMALL
NO_CHARGES


@<TRIPOS>ATOM
   1 C1            -0.0167     1.3812     0.0096 C.ar    
   2 C2             0.0021    -0.0041     0.0020 C.ar    
   3 C3             1.1984    -0.6908    -0.0131 C.ar    
   4 C4             2.4015     0.0061    -0.0204 C.ar    
   5 C5             2.3789     1.4106    -0.0127 C.ar    
   6 C6             1.1664     2.0916     0.0022 C.ar    
   7 N7             3.6054    -0.6770    -0.0347 N.pl3   
   8 C8             4.7971    -0.0584    -0.0423 C.2     
   9 C9             4.9001     1.3105    -0.0364 C.2     
  10 C10            3.6673     2.1304    -0.0207 C.2     
  11 C11            5.9972     2.2731    -0.0422 C.2     
  12 N12            5.4244     3.4961    -0.0313 N.am    
  13 N13            4.0322     3.3795    -0.0185 N.2     
  14 O14            7.1917     2.0232    -0.0541 O.2     
  15 C15            3.5781    -2.1418    -0.0413 C.3     
  16 C16            3.5556    -2.6374    -1.4643 C.ar    
  17 C17            4.7435    -2.8866    -2.1269 C.ar    
  18 C18            4.7261    -3.3404    -3.4313 C.ar    
  19 C19            3.5145    -3.5468    -4.0770 C.ar    
  20 C20            2.3235    -3.2961    -3.4089 C.ar    
  21 C21            2.3472    -2.8473    -2.1028 C.ar    
  22 N22            3.4936    -4.0069    -5.4010 N.pl3   
  23 C23            2.3887    -4.2482    -6.1424 C.2     
  24 C24            2.7953    -4.6776    -7.3595 C.2     
  25 C25            4.1944    -4.6999    -7.3632 C.2     
  26 N26            4.6137    -4.2925    -6.1923 N.2     
  27 C27            6.1581     4.7641    -0.0316 C.3     
  28 C28            5.7794     5.5720    -1.2750 C.3     
  29 C29            5.8000     5.5608     1.2250 C.3     
  30 C30            6.5950     6.8701     1.2386 C.3     
  31 N31            6.3484     7.5862    -0.0205 N.am    
  32 C32            6.5742     6.8816    -1.2898 C.3     
  33 C33            5.9227     8.8649    -0.0112 C.2     
  34 O34            5.7007     9.5089    -1.1725 O.3     
  35 O35            5.7393     9.4365     1.0453 O.2     
  36 C36            5.2433    10.8843    -1.0865 C.3     
  37 C37            5.0502    11.4372    -2.4751 C.ar    
  38 C38            3.8258    11.3126    -3.1045 C.ar    
  39 C39            3.6486    11.8197    -4.3783 C.ar    
  40 C40            4.6958    12.4518    -5.0223 C.ar    
  41 C41            5.9199    12.5772    -4.3925 C.ar    
  42 C42            6.0958    12.0740    -3.1171 C.ar    
  43 H43           -0.9602     1.9068     0.0170 H       
  44 H44           -0.9288    -0.5516     0.0083 H       
  45 H45            1.2005    -1.7708    -0.0189 H       
  46 H46            1.1508     3.1714     0.0084 H       
  47 H47            5.6984    -0.6535    -0.0530 H       
  48 H48            4.4658    -2.5240     0.4626 H       
  49 H49            2.6862    -2.4908     0.4791 H       
  50 H50            5.6857    -2.7259    -1.6242 H       
  51 H51            5.6542    -3.5343    -3.9486 H       
  52 H52            1.3794    -3.4554    -3.9087 H       
  53 H53            1.4211    -2.6521    -1.5826 H       
  54 H54            1.3656    -4.1215    -5.8207 H       
  55 H55            2.1533    -4.9543    -8.1827 H       
  56 H56            4.8205    -4.9976    -8.1913 H       
  57 H57            7.2295     4.5637    -0.0415 H       
  58 H58            6.0132     4.9944    -2.1693 H       
  59 H59            4.7125     5.7942    -1.2535 H       
  60 H60            4.7329     5.7831     1.2231 H       
  61 H61            6.0484     4.9751     2.1101 H       
  62 H62            6.2716     7.4854     2.0782 H       
  63 H63            7.6587     6.6509     1.3320 H       
  64 H64            7.6362     6.6632    -1.4026 H       
  65 H65            6.2371     7.5043    -2.1184 H       
  66 H66            4.2971    10.9195    -0.5466 H       
  67 H67            5.9859    11.4818    -0.5576 H       
  68 H68            3.0077    10.8187    -2.6013 H       
  69 H69            2.6922    11.7217    -4.8703 H       
  70 H70            4.5576    12.8474    -6.0178 H       
  71 H71            6.7381    13.0708    -4.8959 H       
  72 H72            7.0522    12.1719    -2.6251 H       
@<TRIPOS>BOND
   1    1    2 ar
   2    1    6 ar
   3    1   43 1
   4    2    3 ar
   5    2   44 1
   6    3    4 ar
   7    3   45 1
   8    4    5 ar
   9    4    7 1
  10    5    6 ar
  11    5   10 1
  12    6   46 1
  13    7    8 1
  14    7   15 1
  15    8    9 2
  16    8   47 1
  17    9   10 1
  18    9   11 1
  19   10   13 2
  20   11   12 am
  21   11   14 2
  22   12   13 1
  23   12   27 1
  24   15   16 1
  25   15   48 1
  26   15   49 1
  27   16   17 ar
  28   16   21 ar
  29   17   18 ar
  30   17   50 1
  31   18   19 ar
  32   18   51 1
  33   19   20 ar
  34   19   22 1
  35   20   21 ar
  36   20   52 1
  37   21   53 1
  38   22   23 1
  39   22   26 1
  40   23   24 2
  41   23   54 1
  42   24   25 1
  43   24   55 1
  44   25   26 2
  45   25   56 1
  46   27   29 1
  47   27   28 1
  48   27   57 1
  49   28   32 1
  50   28   58 1
  51   28   59 1
  52   29   30 1
  53   29   60 1
  54   29   61 1
  55   30   31 1
  56   30   62 1
  57   30   63 1
  58   31   32 1
  59   31   33 am
  60   32   64 1
  61   32   65 1
  62   33   34 1
  63   33   35 2
  64   34   36 1
  65   36   37 1
  66   36   66 1
  67   36   67 1
  68   37   38 ar
  69   37   42 ar
  70   38   39 ar
  71   38   68 1
  72   39   40 ar
  73   39   69 1
  74   40   41 ar
  75   40   70 1
  76   41   42 ar
  77   41   71 1
  78   42   72 1

#	End of record

