#	Name: ASD09116029
#	Creating user name:	WinNT
#	Creation time:	15. 06. 2019 21:20

#	Modifying user name:	WinNT
#	Modification time:	15. 06. 2019 21:20

#	Program:	/corina/corina34_cracker 3.40 0067  02.08.2006

@<TRIPOS>MOLECULE
ASD09116029
  79   86    0    0    0
SMALL
NO_CHARGES


@<TRIPOS>ATOM
   1 C1             0.0239     1.3839     0.2997 C.ar    
   2 C2             0.0336    -0.0074     0.2340 C.ar    
   3 C3            -1.1584    -0.6870     0.2983 C.ar    
   4 N4            -2.2825     0.0204     0.4222 N.ar    
   5 N5            -2.2947     1.3028     0.4834 N.ar    
   6 C6            -1.1807     2.0386     0.4334 C.ar    
   7 N7            -1.1925    -2.0813     0.2352 N.pl3   
   8 N8            -0.0926    -2.9446     0.1060 N.2     
   9 C9            -0.5660    -4.1675     0.0871 C.2     
  10 N10           -1.8988    -4.1210     0.1970 N.2     
  11 C11           -2.2920    -2.8689     0.2925 C.2     
  12 N12            0.1970    -5.3296    -0.0296 N.pl3   
  13 C13           -0.4159    -6.5812     0.0737 C.ar    
  14 C14            0.1046    -7.6698    -0.6151 C.ar    
  15 C15           -1.5436    -6.7402     0.8701 C.ar    
  16 C16           -2.1420    -7.9831     0.9650 C.ar    
  17 C17           -1.6288    -9.0543     0.2800 C.ar    
  18 C18           -0.5023    -8.9065    -0.5115 C.ar    
  19 N19           -3.5976    -2.4344     0.4207 N.pl3   
  20 C20            1.3965     2.0037     0.2171 C.3     
  21 C21            2.2355     1.4180     1.3661 C.3     
  22 C22            2.2462    -0.1089     1.2947 C.3     
  23 C23            1.4152    -0.5967     0.0953 C.3     
  24 C24            2.0358     1.5321    -1.1005 C.3     
  25 C25            2.0469     0.0052    -1.1720 C.3     
  26 C26           -1.2403     3.5185     0.5072 C.ar    
  27 C27           -2.1116     4.2263    -0.3205 C.ar    
  28 C28           -2.1622     5.6050    -0.2469 C.ar    
  29 C29           -1.3513     6.2823     0.6452 C.ar    
  30 C30           -0.4850     5.5848     1.4682 C.ar    
  31 C31           -0.4299     4.2073     1.4081 C.ar    
  32 C32           -3.3722    -8.1533     1.8322 C.3     
  33 C33           -2.9868    -8.9755     3.0643 C.3     
  34 C34           -3.0713   -10.4607     2.7727 C.3     
  35 C35           -2.0326   -10.9669     1.7915 C.3     
  36 C36           -2.2897   -10.4131     0.3882 C.3     
  37 N37           -2.9147   -11.1933     4.0363 N.3     
  38 C38           -3.1066   -12.6413     3.8349 C.3     
  39 C39           -1.8283   -13.3459     4.3356 C.3     
  40 C40           -1.2174   -12.3081     5.3137 C.3     
  41 C41           -1.5718   -10.9723     4.6140 C.3     
  42 Cl42          -3.1296     3.3769    -1.4412 Cl      
  43 H43            1.1530    -5.2689    -0.1824 H       
  44 H44            0.9831    -7.5492    -1.2316 H       
  45 H45           -1.9497    -5.8987     1.4117 H       
  46 H46           -0.1020    -9.7536    -1.0486 H       
  47 H47           -4.3227    -3.0781     0.4467 H       
  48 H48           -3.7888    -1.4855     0.4847 H       
  49 H49            1.3438     3.0906     0.2803 H       
  50 H50            3.2576     1.7895     1.2917 H       
  51 H51            1.8098     1.7313     2.3194 H       
  52 H52            3.2733    -0.4576     1.1872 H       
  53 H53            1.8251    -0.5157     2.2141 H       
  54 H54            1.3784    -1.6854     0.0565 H       
  55 H55            1.4647     1.9281    -1.9402 H       
  56 H56            3.0592     1.9031    -1.1576 H       
  57 H57            3.0755    -0.3439    -1.2626 H       
  58 H58            1.4812    -0.3189    -2.0455 H       
  59 H59           -2.8361     6.1547    -0.8873 H       
  60 H60           -1.3942     7.3601     0.6995 H       
  61 H61            0.1462     6.1194     2.1626 H       
  62 H62            0.2467     3.6645     2.0515 H       
  63 H63           -3.7385    -7.1753     2.1443 H       
  64 H64           -4.1467    -8.6757     1.2707 H       
  65 H65           -1.9671    -8.7254     3.3572 H       
  66 H66           -3.6637    -8.7322     3.8834 H       
  67 H67           -4.0611   -10.6785     2.3714 H       
  68 H68           -1.0430   -10.6538     2.1242 H       
  69 H69           -2.0708   -12.0557     1.7594 H       
  70 H70           -3.3627   -10.3124     0.2251 H       
  71 H71           -1.8647   -11.0874    -0.3553 H       
  72 H72           -3.9679   -12.9844     4.4080 H       
  73 H73           -3.2554   -12.8518     2.7758 H       
  74 H74           -2.0770   -14.2691     4.8591 H       
  75 H75           -1.1472   -13.5426     3.5077 H       
  76 H76           -1.6882   -12.3719     6.2947 H       
  77 H77           -0.1375   -12.4336     5.3917 H       
  78 H78           -0.8511   -10.7538     3.8260 H       
  79 H79           -1.6000   -10.1595     5.3397 H       
@<TRIPOS>BOND
   1    1    2 ar
   2    1   20 1
   3    1    6 ar
   4    2    3 ar
   5    2   23 1
   6    3    4 ar
   7    3    7 1
   8    4    5 ar
   9    5    6 ar
  10    6   26 1
  11    7    8 1
  12    7   11 1
  13    8    9 2
  14    9   10 1
  15    9   12 1
  16   10   11 2
  17   11   19 1
  18   12   13 1
  19   12   43 1
  20   13   14 ar
  21   13   15 ar
  22   14   18 ar
  23   14   44 1
  24   15   16 ar
  25   15   45 1
  26   16   17 ar
  27   16   32 1
  28   17   18 ar
  29   17   36 1
  30   18   46 1
  31   19   47 1
  32   19   48 1
  33   20   21 1
  34   20   24 1
  35   20   49 1
  36   21   22 1
  37   21   50 1
  38   21   51 1
  39   22   23 1
  40   22   52 1
  41   22   53 1
  42   23   25 1
  43   23   54 1
  44   24   25 1
  45   24   55 1
  46   24   56 1
  47   25   57 1
  48   25   58 1
  49   26   27 ar
  50   26   31 ar
  51   27   28 ar
  52   27   42 1
  53   28   29 ar
  54   28   59 1
  55   29   30 ar
  56   29   60 1
  57   30   31 ar
  58   30   61 1
  59   31   62 1
  60   32   33 1
  61   32   63 1
  62   32   64 1
  63   33   34 1
  64   33   65 1
  65   33   66 1
  66   34   35 1
  67   34   37 1
  68   34   67 1
  69   35   36 1
  70   35   68 1
  71   35   69 1
  72   36   70 1
  73   36   71 1
  74   37   38 1
  75   37   41 1
  76   38   39 1
  77   38   72 1
  78   38   73 1
  79   39   40 1
  80   39   74 1
  81   39   75 1
  82   40   41 1
  83   40   76 1
  84   40   77 1
  85   41   78 1
  86   41   79 1

#	End of record

