#	Name: ASD04530005
#	Creating user name:	WinNT
#	Creation time:	15. 06. 2019 20:49

#	Modifying user name:	WinNT
#	Modification time:	15. 06. 2019 20:49

#	Program:	/corina/corina34_cracker 3.40 0067  02.08.2006

@<TRIPOS>MOLECULE
ASD04530005
  22   24    0    0    0
SMALL
NO_CHARGES


@<TRIPOS>ATOM
   1 C1            -0.0168     1.3875     0.0097 C.ar    
   2 C2             0.0021    -0.0041     0.0020 C.ar    
   3 C3             1.1793    -0.6904    -0.0125 C.ar    
   4 C4             2.3936     0.0159    -0.0203 C.ar    
   5 C5             2.3701     1.4277    -0.0130 C.ar    
   6 C6             1.1449     2.1029     0.0024 C.ar    
   7 C7             3.6410     2.1732    -0.0212 C.ar    
   8 C8             4.8210     1.4363    -0.0360 C.ar    
   9 S9             6.1776     2.5624    -0.0436 S.3     
  10 C10            5.0647     3.9233    -0.0265 C.2     
  11 N11            3.8455     3.5002    -0.0169 N.2     
  12 N12            5.4405     5.2522    -0.0234 N.pl3   
  13 C13            3.6290    -0.6602    -0.0349 C.ar    
  14 C14            4.7918     0.0338    -0.0427 C.ar    
  15 H15           -0.9632     1.9077     0.0170 H       
  16 H16           -0.9307    -0.5485     0.0080 H       
  17 H17            1.1786    -1.7703    -0.0176 H       
  18 H18            1.1188     3.1826     0.0078 H       
  19 H19            6.3808     5.4903    -0.0313 H       
  20 H20            4.7642     5.9475    -0.0134 H       
  21 H21            3.6491    -1.7400    -0.0401 H       
  22 H22            5.7254    -0.5092    -0.0546 H       
@<TRIPOS>BOND
   1    1    2 ar
   2    1    6 ar
   3    1   15 1
   4    2    3 ar
   5    2   16 1
   6    3    4 ar
   7    3   17 1
   8    4    5 ar
   9    4   13 ar
  10    5    6 ar
  11    5    7 ar
  12    6   18 1
  13    7    8 ar
  14    7   11 1
  15    8    9 1
  16    8   14 ar
  17    9   10 1
  18   10   11 2
  19   10   12 1
  20   12   19 1
  21   12   20 1
  22   13   14 ar
  23   13   21 1
  24   14   22 1

#	End of record

