#	Name: ASD00071065
#	Creating user name:	WinNT
#	Creation time:	15. 06. 2019 18:30

#	Modifying user name:	WinNT
#	Modification time:	15. 06. 2019 18:30

#	Program:	/corina/corina34_cracker 3.40 0067  02.08.2006

@<TRIPOS>MOLECULE
ASD00071065
  39   41    0    0    0
SMALL
NO_CHARGES


@<TRIPOS>ATOM
   1 N1             1.8356     1.2423    -1.2028 N.ar    
   2 C2             1.6405    -0.0602    -1.1904 C.ar    
   3 C3             1.3735    -0.7510     0.0007 C.ar    
   4 C4             1.3121    -0.0719     1.1798 C.ar    
   5 C5             1.5224     1.3224     1.1598 C.ar    
   6 C6             1.4737     2.0829     2.3378 C.ar    
   7 C7             1.6823     3.4281     2.2805 C.ar    
   8 C8             1.9430     4.0591     1.0669 C.ar    
   9 C9             1.9969     3.3511    -0.0951 C.ar    
  10 C10            1.7874     1.9620    -0.0758 C.ar    
  11 N11            1.6999    -0.7651    -2.3832 N.pl3   
  12 C12            1.1546    -2.2418    -0.0241 C.3     
  13 C13            1.0229    -2.7537     1.3872 C.ar    
  14 C14           -0.2301    -2.8632     1.9720 C.ar    
  15 C15           -0.3483    -3.3347     3.2714 C.ar    
  16 C16            0.7813    -3.6945     3.9811 C.ar    
  17 C17            2.0297    -3.5848     3.3984 C.ar    
  18 C18            2.1511    -3.1202     2.0990 C.ar    
  19 F19            3.3718    -3.0194     1.5290 F       
  20 O20           -1.3404    -2.5087     1.2733 O.3     
  21 C21           -2.5975    -2.6478     1.9385 C.3     
  22 C22           -3.7223    -2.2036     1.0013 C.3     
  23 H23            1.1073    -0.5879     2.1062 H       
  24 H24            1.2716     1.6047     3.2848 H       
  25 H25            1.6446     4.0125     3.1879 H       
  26 H26            2.1048     5.1267     1.0469 H       
  27 H27            2.1995     3.8557    -1.0282 H       
  28 H28            1.8012    -0.2901    -3.2228 H       
  29 H29            1.6402    -1.7333    -2.3779 H       
  30 H30            0.2433    -2.4660    -0.5784 H       
  31 H31            2.0028    -2.7256    -0.5084 H       
  32 H32           -1.3232    -3.4203     3.7282 H       
  33 H33            0.6887    -4.0615     4.9926 H       
  34 H34            2.9114    -3.8658     3.9552 H       
  35 H35           -2.7476    -3.6908     2.2174 H       
  36 H36           -2.6049    -2.0273     2.8346 H       
  37 H37           -4.6812    -2.3096     1.5087 H       
  38 H38           -3.5723    -1.1606     0.7223 H       
  39 H39           -3.7149    -2.8240     0.1051 H       
@<TRIPOS>BOND
   1    1    2 ar
   2    1   10 ar
   3    2    3 ar
   4    2   11 1
   5    3    4 ar
   6    3   12 1
   7    4    5 ar
   8    4   23 1
   9    5    6 ar
  10    5   10 ar
  11    6    7 ar
  12    6   24 1
  13    7    8 ar
  14    7   25 1
  15    8    9 ar
  16    8   26 1
  17    9   10 ar
  18    9   27 1
  19   11   28 1
  20   11   29 1
  21   12   13 1
  22   12   30 1
  23   12   31 1
  24   13   14 ar
  25   13   18 ar
  26   14   15 ar
  27   14   20 1
  28   15   16 ar
  29   15   32 1
  30   16   17 ar
  31   16   33 1
  32   17   18 ar
  33   17   34 1
  34   18   19 1
  35   20   21 1
  36   21   22 1
  37   21   35 1
  38   21   36 1
  39   22   37 1
  40   22   38 1
  41   22   39 1

#	End of record

