#	Name: ASD01910407
#	Creating user name:	WinNT
#	Creation time:	15. 06. 2019 19:55

#	Modifying user name:	WinNT
#	Modification time:	15. 06. 2019 19:55

#	Program:	/corina/corina34_cracker 3.40 0067  02.08.2006

@<TRIPOS>MOLECULE
ASD01910407
  50   53    0    0    0
SMALL
NO_CHARGES


@<TRIPOS>ATOM
   1 C1            -0.0093     1.4271     0.0868 C.ar    
   2 C2             0.0086    -0.0046     0.0656 C.1     
   3 C3             0.0233    -1.1784     0.0482 C.1     
   4 C4             0.0411    -2.6102     0.0270 C.ar    
   5 C5            -0.9513    -3.3124    -0.6659 C.ar    
   6 C6            -0.9334    -4.6778    -0.6862 C.ar    
   7 C7             0.0762    -5.3740    -0.0148 C.ar    
   8 C8             1.0677    -4.6731     0.6781 C.ar    
   9 C9             1.0543    -3.3075     0.6943 C.ar    
  10 C10            0.0949    -6.8500    -0.0371 C.2     
  11 O11           -0.9458    -7.4726     0.0500 O.2     
  12 C12            0.9804     2.1316     0.7780 C.ar    
  13 C13            0.9569     3.5104     0.7935 C.ar    
  14 C14           -0.0433     4.1964     0.1271 C.ar    
  15 C15           -1.0269     3.5057    -0.5590 C.ar    
  16 C16           -1.0132     2.1270    -0.5883 C.ar    
  17 N17            1.2656    -7.5074    -0.1540 N.am    
  18 C18            1.3211    -8.9739    -0.0555 C.3     
  19 C19            2.0836    -9.5148    -1.2697 C.3     
  20 N20            3.3897    -8.8485    -1.3603 N.3     
  21 C21            3.2369    -7.4048    -1.5847 C.3     
  22 C22            2.5208    -6.7779    -0.3895 C.3     
  23 C23            4.1806    -9.4296    -2.3564 C.ar    
  24 C24            4.5211   -10.7729    -2.2791 C.ar    
  25 C25            5.3025   -11.3444    -3.2652 C.ar    
  26 C26            5.7457   -10.5806    -4.3286 C.ar    
  27 C27            5.4091    -9.2413    -4.4103 C.ar    
  28 C28            4.6234    -8.6640    -3.4303 C.ar    
  29 F29            4.2942    -7.3562    -3.5102 F       
  30 H30           -1.7314    -2.7747    -1.1843 H       
  31 H31           -1.6994    -5.2200    -1.2206 H       
  32 H32            1.8469    -5.2115     1.1971 H       
  33 H33            1.8205    -2.7661     1.2293 H       
  34 H34            1.7614     1.5976     1.2988 H       
  35 H35            1.7207     4.0562     1.3274 H       
  36 H36           -0.0566     5.2762     0.1428 H       
  37 H37           -1.8045     4.0478    -1.0764 H       
  38 H38           -1.7812     1.5892    -1.1244 H       
  39 H39            1.8394    -9.2600     0.8596 H       
  40 H40            0.3092    -9.3789    -0.0485 H       
  41 H41            2.2303   -10.5891    -1.1580 H       
  42 H42            1.5111    -9.3178    -2.1761 H       
  43 H43            4.2201    -6.9489    -1.7014 H       
  44 H44            2.6484    -7.2372    -2.4867 H       
  45 H45            2.3035    -5.7309    -0.6009 H       
  46 H46            3.1522    -6.8522     0.4958 H       
  47 H47            4.1759   -11.3709    -1.4486 H       
  48 H48            5.5677   -12.3896    -3.2047 H       
  49 H49            6.3565   -11.0304    -5.0974 H       
  50 H50            5.7573    -8.6473    -5.2423 H       
@<TRIPOS>BOND
   1    1    2 1
   2    1   12 ar
   3    1   16 ar
   4    2    3 3
   5    3    4 1
   6    4    5 ar
   7    4    9 ar
   8    5    6 ar
   9    5   30 1
  10    6    7 ar
  11    6   31 1
  12    7    8 ar
  13    7   10 1
  14    8    9 ar
  15    8   32 1
  16    9   33 1
  17   10   11 2
  18   10   17 am
  19   12   13 ar
  20   12   34 1
  21   13   14 ar
  22   13   35 1
  23   14   15 ar
  24   14   36 1
  25   15   16 ar
  26   15   37 1
  27   16   38 1
  28   17   18 1
  29   17   22 1
  30   18   19 1
  31   18   39 1
  32   18   40 1
  33   19   20 1
  34   19   41 1
  35   19   42 1
  36   20   21 1
  37   20   23 1
  38   21   22 1
  39   21   43 1
  40   21   44 1
  41   22   45 1
  42   22   46 1
  43   23   24 ar
  44   23   28 ar
  45   24   25 ar
  46   24   47 1
  47   25   26 ar
  48   25   48 1
  49   26   27 ar
  50   26   49 1
  51   27   28 ar
  52   27   50 1
  53   28   29 1

#	End of record

