#	Name: ASD01813010
#	Creating user name:	WinNT
#	Creation time:	15. 06. 2019 19:29

#	Modifying user name:	WinNT
#	Modification time:	15. 06. 2019 19:29

#	Program:	/corina/corina34_cracker 3.40 0067  02.08.2006

@<TRIPOS>MOLECULE
ASD01813010
  43   46    0    0    0
SMALL
NO_CHARGES


@<TRIPOS>ATOM
   1 C1            -0.0392     1.3765    -0.2127 C.2     
   2 C2            -0.0180    -0.0024    -0.2114 C.2     
   3 N3            -1.1549    -0.6981    -0.0021 N.pl3   
   4 C4            -2.3479    -0.1287     0.2210 C.2     
   5 C5            -2.5045     1.2407     0.2511 C.2     
   6 C6            -1.3124     2.0765     0.0226 C.2     
   7 O7            -1.3765     3.2939     0.0354 O.2     
   8 C8            -1.0815    -2.1611    -0.0201 C.3     
   9 C9            -0.9274    -2.6738     1.3886 C.ar    
  10 C10           -2.0633    -2.9691     2.1395 C.ar    
  11 C11           -1.9591    -3.4334     3.4149 C.ar    
  12 C12           -0.6887    -3.6191     3.9855 C.ar    
  13 C13            0.4669    -3.3192     3.2214 C.ar    
  14 C14            0.3196    -2.8467     1.9064 C.ar    
  15 C15            1.1849     2.1480    -0.4507 C.2     
  16 C16            2.5035     1.4022    -0.4347 C.3     
  17 C17            2.2870     0.0811    -1.1853 C.3     
  18 C18            1.2628    -0.7642    -0.4337 C.3     
  19 O19            1.1430     3.3434    -0.6541 O.2     
  20 C20           -0.5412    -4.0961     5.2993 C.ar    
  21 C21            0.7054    -4.2632     5.8190 C.ar    
  22 C22            1.8417    -3.9684     5.0676 C.ar    
  23 C23            1.7377    -3.5047     3.7924 C.ar    
  24 C24           -3.8214     1.8486     0.4984 C.2     
  25 O25           -4.7928     1.1411     0.6804 O.2     
  26 O26           -3.9505     3.1900     0.5233 O.3     
  27 H27           -3.2095    -0.7598     0.3812 H       
  28 H28           -1.9951    -2.5654    -0.4560 H       
  29 H29           -0.2247    -2.4746    -0.6166 H       
  30 H30           -3.0410    -2.8272     1.7033 H       
  31 H31           -2.8484    -3.6574     3.9853 H       
  32 H32            1.1911    -2.6141     1.3124 H       
  33 H33            3.2701     1.9928    -0.9363 H       
  34 H34            2.8031     1.2000     0.5937 H       
  35 H35            1.9198     0.2896    -2.1902 H       
  36 H36            3.2307    -0.4608    -1.2475 H       
  37 H37            1.6782    -1.0536     0.5315 H       
  38 H38            1.0479    -1.6625    -1.0124 H       
  39 H39           -1.4127    -4.3284     5.8935 H       
  40 H40            0.8159    -4.6295     6.8289 H       
  41 H41            2.8194    -4.1100     5.5040 H       
  42 H42            2.6270    -3.2808     3.2220 H       
  43 H43           -4.8354     3.5428     0.6895 H       
@<TRIPOS>BOND
   1    1    2 2
   2    1   15 1
   3    1    6 1
   4    2    3 1
   5    2   18 1
   6    3    4 1
   7    3    8 1
   8    4    5 2
   9    4   27 1
  10    5    6 1
  11    5   24 1
  12    6    7 2
  13    8    9 1
  14    8   28 1
  15    8   29 1
  16    9   10 ar
  17    9   14 ar
  18   10   11 ar
  19   10   30 1
  20   11   12 ar
  21   11   31 1
  22   12   13 ar
  23   12   20 ar
  24   13   14 ar
  25   13   23 ar
  26   14   32 1
  27   15   16 1
  28   15   19 2
  29   16   17 1
  30   16   33 1
  31   16   34 1
  32   17   18 1
  33   17   35 1
  34   17   36 1
  35   18   37 1
  36   18   38 1
  37   20   21 ar
  38   20   39 1
  39   21   22 ar
  40   21   40 1
  41   22   23 ar
  42   22   41 1
  43   23   42 1
  44   24   25 2
  45   24   26 1
  46   26   43 1

#	End of record

