#	Name: ASD01001254
#	Creating user name:	WinNT
#	Creation time:	15. 06. 2019 18:55

#	Modifying user name:	WinNT
#	Modification time:	15. 06. 2019 18:55

#	Program:	/corina/corina34_cracker 3.40 0067  02.08.2006

@<TRIPOS>MOLECULE
ASD01001254
  44   47    0    0    0
SMALL
NO_CHARGES


@<TRIPOS>ATOM
   1 C1            -0.0093     1.3471    -0.1680 C.ar    
   2 C2             0.0047    -0.0385    -0.1957 C.ar    
   3 C3            -1.1730    -0.7611    -0.1701 C.ar    
   4 C4            -2.3931    -0.1052    -0.1164 C.ar    
   5 C5            -2.3994     1.3032    -0.0988 C.ar    
   6 C6            -1.2166     2.0237    -0.1134 C.ar    
   7 F7             1.1525     2.0363    -0.1886 F       
   8 O8            -3.5467    -0.8127    -0.0657 O.3     
   9 C9            -4.8040    -0.2144    -0.3902 C.3     
  10 C10           -4.9336     1.1101     0.3647 C.3     
  11 C11           -3.7290     1.9425    -0.0728 C.2     
  12 C12           -6.1285     1.9476    -0.0953 C.3     
  13 N13           -5.5137     3.2266    -0.4992 N.am    
  14 N14           -4.1235     3.0848    -0.4734 N.2     
  15 C15           -6.1824     4.3469    -0.8371 C.2     
  16 N16           -5.5067     5.4872    -1.0817 N.am    
  17 O17           -7.3953     4.3290    -0.9214 O.2     
  18 C18           -6.2187     6.6697    -1.5724 C.3     
  19 C19           -4.0601     5.5440    -0.8570 C.3     
  20 C20           -6.8150     1.2947    -1.2673 C.ar    
  21 C21           -7.9671     0.5589    -1.0698 C.ar    
  22 C22           -8.5990    -0.0415    -2.1493 C.ar    
  23 C23           -8.0716     0.0989    -3.4246 C.ar    
  24 C24           -6.9189     0.8360    -3.6168 C.ar    
  25 C25           -6.2941     1.4376    -2.5403 C.ar    
  26 O26           -9.7325    -0.7663    -1.9576 O.3     
  27 H27           -4.9381     0.9514     1.4431 H       
  28 H28            0.9491    -0.5607    -0.2381 H       
  29 H29           -1.1427    -1.8405    -0.1924 H       
  30 H30           -1.2358     3.1033    -0.0916 H       
  31 H31           -4.8538    -0.0292    -1.4632 H       
  32 H32           -5.6130    -0.8829    -0.0958 H       
  33 H33           -6.8292     2.1003     0.7255 H       
  34 H34           -6.5577     7.2669    -0.7259 H       
  35 H35           -5.5492     7.2657    -2.1925 H       
  36 H36           -7.0791     6.3564    -2.1637 H       
  37 H37           -3.5407     5.1590    -1.7345 H       
  38 H38           -3.7601     6.5770    -0.6812 H       
  39 H39           -3.8034     4.9382     0.0121 H       
  40 H40           -8.3756     0.4508    -0.0759 H       
  41 H41           -8.5614    -0.3678    -4.2664 H       
  42 H42           -6.5079     0.9456    -4.6095 H       
  43 H43           -5.3932     2.0133    -2.6926 H       
  44 H44          -10.5464    -0.2482    -2.0225 H       
@<TRIPOS>BOND
   1    1    2 ar
   2    1    7 1
   3    1    6 ar
   4    2    3 ar
   5    2   28 1
   6    3    4 ar
   7    3   29 1
   8    4    5 ar
   9    4    8 1
  10    5    6 ar
  11    5   11 1
  12    6   30 1
  13    8    9 1
  14    9   10 1
  15    9   31 1
  16    9   32 1
  17   10   11 1
  18   10   27 1
  19   10   12 1
  20   11   14 2
  21   12   13 1
  22   12   20 1
  23   12   33 1
  24   13   14 1
  25   13   15 am
  26   15   16 am
  27   15   17 2
  28   16   18 1
  29   16   19 1
  30   18   34 1
  31   18   35 1
  32   18   36 1
  33   19   37 1
  34   19   38 1
  35   19   39 1
  36   20   21 ar
  37   20   25 ar
  38   21   22 ar
  39   21   40 1
  40   22   23 ar
  41   22   26 1
  42   23   24 ar
  43   23   41 1
  44   24   25 ar
  45   24   42 1
  46   25   43 1
  47   26   44 1

#	End of record

