#	Name: ASD01913342
#	Creating user name:	WinNT
#	Creation time:	15. 06. 2019 20:01

#	Modifying user name:	WinNT
#	Modification time:	15. 06. 2019 20:01

#	Program:	/corina/corina34_cracker 3.40 0067  02.08.2006

@<TRIPOS>MOLECULE
ASD01913342
  37   39    0    0    0
SMALL
NO_CHARGES


@<TRIPOS>ATOM
   1 C1            -0.0167     1.3769     0.0096 C.2     
   2 C2             0.0021    -0.0041     0.0020 C.2     
   3 C3             1.2502    -0.6727    -0.0135 C.2     
   4 N4             2.3635     0.0160    -0.0200 N.2     
   5 C5             2.3512     1.3569    -0.0127 C.2     
   6 N6             1.1682     2.0509     0.0019 N.pl3   
   7 C7             3.3707     2.2996    -0.0169 C.2     
   8 C8             2.7825     3.5560    -0.0048 C.2     
   9 N9             1.4763     3.4163     0.0065 N.2     
  10 C10            3.5224     4.8689    -0.0040 C.3     
  11 C11            4.0857     5.1376    -1.4009 C.3     
  12 C12            2.5623     5.9951     0.3841 C.3     
  13 C13            4.6703     4.8068     1.0055 C.3     
  14 C14           -1.2215    -0.7480     0.0102 C.1     
  15 C15           -2.2246    -1.3579     0.0169 C.1     
  16 C16           -3.4481    -2.1019     0.0250 C.ar    
  17 C17           -3.4395    -3.5039     0.0174 C.ar    
  18 C18           -4.6413    -4.1790     0.0257 C.ar    
  19 N19           -5.7871    -3.5240     0.0401 N.ar    
  20 C20           -5.8412    -2.2053     0.0477 C.ar    
  21 C21           -4.6887    -1.4490     0.0467 C.ar    
  22 H22           -0.9539     1.9135     0.0170 H       
  23 H23            1.2837    -1.7522    -0.0196 H       
  24 H24            4.4305     2.0921    -0.0273 H       
  25 H25            3.2678     5.1819    -2.1202 H       
  26 H26            4.6208     6.0872    -1.4004 H       
  27 H27            4.7697     4.3352    -1.6774 H       
  28 H28            2.1610     5.8037     1.3793 H       
  29 H29            3.0974     6.9447     0.3846 H       
  30 H30            1.7444     6.0394    -0.3352 H       
  31 H31            5.3543     4.0044     0.7290 H       
  32 H32            5.2055     5.7564     1.0061 H       
  33 H33            4.2690     4.6153     2.0007 H       
  34 H34           -2.5058    -4.0464     0.0049 H       
  35 H35           -4.6453    -5.2589     0.0199 H       
  36 H36           -6.8018    -1.7119     0.0595 H       
  37 H37           -4.7406    -0.3703     0.0529 H       
@<TRIPOS>BOND
   1    1    2 2
   2    1    6 1
   3    1   22 1
   4    2    3 1
   5    2   14 1
   6    3    4 2
   7    3   23 1
   8    4    5 1
   9    5    6 1
  10    5    7 2
  11    6    9 1
  12    7    8 1
  13    7   24 1
  14    8    9 2
  15    8   10 1
  16   10   11 1
  17   10   12 1
  18   10   13 1
  19   11   25 1
  20   11   26 1
  21   11   27 1
  22   12   28 1
  23   12   29 1
  24   12   30 1
  25   13   31 1
  26   13   32 1
  27   13   33 1
  28   14   15 3
  29   15   16 1
  30   16   17 ar
  31   16   21 ar
  32   17   18 ar
  33   17   34 1
  34   18   19 ar
  35   18   35 1
  36   19   20 ar
  37   20   21 ar
  38   20   36 1
  39   21   37 1

#	End of record

