#	Name: ASD01816237
#	Creating user name:	WinNT
#	Creation time:	15. 06. 2019 19:34

#	Modifying user name:	WinNT
#	Modification time:	15. 06. 2019 19:34

#	Program:	/corina/corina34_cracker 3.40 0067  02.08.2006

@<TRIPOS>MOLECULE
ASD01816237
  44   48    0    0    0
SMALL
NO_CHARGES


@<TRIPOS>ATOM
   1 C1            -0.1615     1.2173     0.2221 C.ar    
   2 C2            -0.0817    -0.1658     0.2056 C.ar    
   3 C3             1.1413    -0.7985     0.1226 C.ar    
   4 C4             2.3102    -0.0488     0.0548 C.ar    
   5 C5             2.2259     1.3535     0.0716 C.ar    
   6 C6             0.9867     1.9797     0.1552 C.ar    
   7 N7             3.5406    -0.6775    -0.0277 N.pl3   
   8 C8             4.7016    -0.0063    -0.0957 C.2     
   9 C9             4.7439     1.3657    -0.0875 C.2     
  10 C10            3.4785     2.1298    -0.0013 C.2     
  11 C11            5.7954     2.3764    -0.1463 C.2     
  12 N12            5.1706     3.5727    -0.0977 N.am    
  13 N13            3.7876     3.3946    -0.0113 N.2     
  14 C14            5.8170     4.8149    -0.1289 C.ar    
  15 C15            5.5900     5.7444     0.8803 C.ar    
  16 C16            6.6904     5.1191    -1.1646 C.ar    
  17 C17            7.3264     6.3449    -1.1928 C.ar    
  18 C18            7.0952     7.2698    -0.1910 C.ar    
  19 C19            6.2304     6.9698     0.8454 C.ar    
  20 F20            4.7451     5.4511     1.8929 F       
  21 O21            6.9973     2.1799    -0.2231 O.2     
  22 C22            3.5779    -2.1419    -0.0411 C.3     
  23 C23            3.4318    -2.6353    -1.4575 C.ar    
  24 C24            3.4801    -3.9908    -1.7260 C.ar    
  25 C25            3.3455    -4.4432    -3.0262 C.ar    
  26 C26            3.1627    -3.5404    -4.0564 C.ar    
  27 C27            3.1144    -2.1850    -3.7876 C.ar    
  28 C28            3.2437    -1.7329    -2.4879 C.ar    
  29 I29            3.7579    -5.3590    -0.1641 I       
  30 H30           -1.1256     1.7003     0.2829 H       
  31 H31           -0.9858    -0.7542     0.2587 H       
  32 H32            1.1909    -1.8773     0.1106 H       
  33 H33            0.9236     3.0578     0.1684 H       
  34 H34            5.6265    -0.5605    -0.1580 H       
  35 H35            6.8726     4.3976    -1.9473 H       
  36 H36            8.0057     6.5813    -1.9984 H       
  37 H37            7.5947     8.2270    -0.2158 H       
  38 H38            6.0518     7.6945     1.6260 H       
  39 H39            4.5287    -2.4849     0.3668 H       
  40 H40            2.7605    -2.5317     0.5656 H       
  41 H41            3.3836    -5.5019    -3.2362 H       
  42 H42            3.0579    -3.8936    -5.0716 H       
  43 H43            2.9716    -1.4797    -4.5929 H       
  44 H44            3.2056    -0.6742    -2.2781 H       
@<TRIPOS>BOND
   1    1    2 ar
   2    1    6 ar
   3    1   30 1
   4    2    3 ar
   5    2   31 1
   6    3    4 ar
   7    3   32 1
   8    4    5 ar
   9    4    7 1
  10    5    6 ar
  11    5   10 1
  12    6   33 1
  13    7    8 1
  14    7   22 1
  15    8    9 2
  16    8   34 1
  17    9   10 1
  18    9   11 1
  19   10   13 2
  20   11   12 am
  21   11   21 2
  22   12   13 1
  23   12   14 1
  24   14   15 ar
  25   14   16 ar
  26   15   20 1
  27   15   19 ar
  28   16   17 ar
  29   16   35 1
  30   17   18 ar
  31   17   36 1
  32   18   19 ar
  33   18   37 1
  34   19   38 1
  35   22   23 1
  36   22   39 1
  37   22   40 1
  38   23   24 ar
  39   23   28 ar
  40   24   25 ar
  41   24   29 1
  42   25   26 ar
  43   25   41 1
  44   26   27 ar
  45   26   42 1
  46   27   28 ar
  47   27   43 1
  48   28   44 1

#	End of record

