#	Name: ASD03330509
#	Creating user name:	WinNT
#	Creation time:	15. 06. 2019 20:37

#	Modifying user name:	WinNT
#	Modification time:	15. 06. 2019 20:37

#	Program:	/corina/corina34_cracker 3.40 0067  02.08.2006

@<TRIPOS>MOLECULE
ASD03330509
  53   55    0    0    0
SMALL
NO_CHARGES


@<TRIPOS>ATOM
   1 C1            -0.2632     2.0911    -0.6952 C.3     
   2 N2            -0.1018     0.6538    -0.4342 N.3     
   3 C3             0.3548    -0.0584    -1.6412 C.3     
   4 C4             1.5430     0.6830    -2.1980 C.2     
   5 N5             1.8762     1.9501    -1.8394 N.pl3   
   6 C6             1.1134     2.7445    -0.8724 C.3     
   7 C7             2.4600     0.2670    -3.1079 C.2     
   8 N8             3.3410     1.2750    -3.2942 N.2     
   9 C9             2.9961     2.2916    -2.5327 C.2     
  10 C10            3.7027     3.5819    -2.4462 C.2     
  11 C11            2.4896    -1.0475    -3.7738 C.2     
  12 O12            1.6360    -1.8763    -3.5216 O.2     
  13 C13            3.4920    -2.6378    -5.3240 C.3     
  14 N14            3.4626    -1.3312    -4.6622 N.am    
  15 C15            4.2166    -3.6461    -4.4301 C.3     
  16 N16            4.7756     3.9032    -3.1137 N.2     
  17 C17           -1.3467     0.0696     0.0824 C.3     
  18 C18            3.4104    -3.8626    -3.1479 C.3     
  19 C19            4.3598    -4.9759    -5.1732 C.3     
  20 C20            5.6043    -3.1082    -4.0753 C.3     
  21 C21            4.2190    -2.5187    -6.6387 C.2     
  22 N22            4.2074    -3.5464    -7.5107 N.am    
  23 O23            4.8144    -1.4982    -6.9121 O.2     
  24 C24            4.9801    -3.4621    -8.7525 C.3     
  25 C25            5.2692     5.1006    -2.9089 C.2     
  26 C26            4.6073     5.8622    -2.0288 C.2     
  27 S27            3.2292     4.9409    -1.4299 S.3     
  28 H28           -0.8503     2.2309    -1.6029 H       
  29 H29           -0.7797     2.5562     0.1445 H       
  30 H30            0.6447    -1.0763    -1.3808 H       
  31 H31           -0.4454    -0.0803    -2.3810 H       
  32 H32            0.9925     3.7614    -1.2459 H       
  33 H33            1.6374     2.7630     0.0832 H       
  34 H34            2.4719    -2.9778    -5.5024 H       
  35 H35            4.1435    -0.6702    -4.8633 H       
  36 H36           -2.1584     0.2660    -0.6181 H       
  37 H37           -1.2213    -1.0067     0.2007 H       
  38 H38           -1.5842     0.5159     1.0481 H       
  39 H39            2.4218    -4.2459    -3.4007 H       
  40 H40            3.9266    -4.5810    -2.5110 H       
  41 H41            3.3084    -2.9153    -2.6185 H       
  42 H42            4.8360    -4.8033    -6.1383 H       
  43 H43            4.9718    -5.6579    -4.5829 H       
  44 H44            3.3737    -5.4138    -5.3276 H       
  45 H45            5.5023    -2.1609    -3.5459 H       
  46 H46            6.1205    -3.8266    -3.4384 H       
  47 H47            6.1787    -2.9540    -4.9887 H       
  48 H48            3.6875    -4.3418    -7.3160 H       
  49 H49            4.6308    -2.6136    -9.3408 H       
  50 H50            6.0357    -3.3299    -8.5153 H       
  51 H51            4.8486    -4.3801    -9.3252 H       
  52 H52            6.1549     5.4506    -3.4181 H       
  53 H53            4.8700     6.8689    -1.7391 H       
@<TRIPOS>BOND
   1    1    2 1
   2    1    6 1
   3    1   28 1
   4    1   29 1
   5    2    3 1
   6    2   17 1
   7    3    4 1
   8    3   30 1
   9    3   31 1
  10    4    5 1
  11    4    7 2
  12    5    6 1
  13    5    9 1
  14    6   32 1
  15    6   33 1
  16    7    8 1
  17    7   11 1
  18    8    9 2
  19    9   10 1
  20   10   16 2
  21   10   27 1
  22   11   12 2
  23   11   14 am
  24   13   14 1
  25   13   15 1
  26   13   21 1
  27   13   34 1
  28   14   35 1
  29   15   18 1
  30   15   19 1
  31   15   20 1
  32   16   25 1
  33   17   36 1
  34   17   37 1
  35   17   38 1
  36   18   39 1
  37   18   40 1
  38   18   41 1
  39   19   42 1
  40   19   43 1
  41   19   44 1
  42   20   45 1
  43   20   46 1
  44   20   47 1
  45   21   22 am
  46   21   23 2
  47   22   24 1
  48   22   48 1
  49   24   49 1
  50   24   50 1
  51   24   51 1
  52   25   26 2
  53   25   52 1
  54   26   27 1
  55   26   53 1

#	End of record

