#	Name: ASD00731044
#	Creating user name:	WinNT
#	Creation time:	15. 06. 2019 18:37

#	Modifying user name:	WinNT
#	Modification time:	15. 06. 2019 18:37

#	Program:	/corina/corina34_cracker 3.40 0067  02.08.2006

@<TRIPOS>MOLECULE
ASD00731044
 240  242    0    0    0
SMALL
NO_CHARGES


@<TRIPOS>ATOM
   1 C1             0.0673    -0.8879     0.1034 C.2     
   2 O2            -0.1880    -2.0580     0.2948 O.2     
   3 N3             2.3969    -1.5567     0.2237 N.am    
   4 C4             1.4939    -0.4538    -0.1144 C.3     
   5 C5             1.6905    -0.0650    -1.5810 C.3     
   6 C6             3.1337     0.3944    -1.7978 C.3     
   7 O7             1.4200    -1.1945    -2.4136 O.3     
   8 C8            -3.2136     0.6207    -0.4648 C.2     
   9 O9            -2.7312     1.6210    -0.9523 O.2     
  10 N10           -0.9255     0.0233     0.0798 N.am    
  11 C11           -2.3212    -0.4114     0.1750 C.3     
  12 C12           -2.7050    -0.5754     1.6470 C.3     
  13 C13           -6.7963     1.3447    -0.5209 C.2     
  14 O14           -7.0326     0.5227     0.3390 O.2     
  15 N15           -4.5478     0.4323    -0.4952 N.am    
  16 C16           -5.4153     1.4356    -1.1172 C.3     
  17 C17           -5.4924     1.1797    -2.6237 C.3     
  18 C18           -4.1125     1.3943    -3.2487 C.3     
  19 C19           -4.1896     1.1384    -4.7552 C.3     
  20 N20           -2.8683     1.3439    -5.3537 N.pl3   
  21 C21           -2.6916     1.1701    -6.7060 C.2     
  22 N22           -3.6997     0.8224    -7.4556 N.2     
  23 N23           -1.4517     1.3629    -7.2677 N.pl3   
  24 C24          -10.1352     2.6041    -1.2697 C.2     
  25 O25           -9.8174     3.2084    -2.2720 O.2     
  26 N26           -7.7688     2.1769    -0.9432 N.am    
  27 C27           -9.0794     2.1638    -0.2887 C.3     
  28 C28           -9.0625     3.1198     0.9058 C.3     
  29 C29          -10.3686     2.9791     1.6901 C.3     
  30 C30          -10.4436     1.5820     2.3094 C.3     
  31 C31          -10.4132     4.0317     2.7996 C.3     
  32 C32          -13.7821     2.8390    -1.3595 C.2     
  33 O33          -13.8762     2.7032    -0.1580 O.2     
  34 N34          -11.4327     2.3265    -1.0331 N.am    
  35 C35          -12.4476     2.6588    -2.0360 C.3     
  36 C36          -12.5434     1.5256    -3.0594 C.3     
  37 C37          -11.2275     1.4246    -3.8333 C.3     
  38 C38          -11.3234     0.2914    -4.8568 C.3     
  39 N39          -10.0633     0.1947    -5.5979 N.pl3   
  40 C40           -9.9132    -0.7582    -6.5774 C.2     
  41 N41           -8.7921    -0.8442    -7.2367 N.2     
  42 N42          -10.9457    -1.6204    -6.8616 N.pl3   
  43 C43          -17.2733     3.0575    -2.4212 C.2     
  44 O44          -17.0035     2.7500    -3.5630 O.2     
  45 N45          -14.8711     3.1510    -2.0898 N.am    
  46 C46          -16.1684     3.3262    -1.4322 C.3     
  47 C47          -16.2871     4.7602    -0.9121 C.3     
  48 C48          -15.2438     4.9938     0.1823 C.3     
  49 C49          -15.3624     6.4277     0.7024 C.3     
  50 C50          -14.3191     6.6613     1.7969 C.3     
  51 N51          -14.4330     8.0381     2.2962 N.3     
  52 C52          -20.8801     3.6324    -2.5727 C.2     
  53 O53          -20.8712     4.3077    -1.5653 O.2     
  54 N54          -18.5611     3.1590    -2.0370 N.am    
  55 C55          -19.6351     2.8978    -2.9984 C.3     
  56 C56          -19.9212     1.3956    -3.0479 C.3     
  57 C57          -18.7156     0.6723    -3.5906 C.2     
  58 C58          -18.5074     0.3137    -4.8673 C.2     
  59 N59          -17.3024    -0.3243    -4.9822 N.pl3   
  60 C60          -16.6901    -0.3936    -3.7509 C.ar    
  61 C61          -15.4816    -0.9230    -3.3108 C.ar    
  62 C62          -15.1399    -0.8336    -1.9789 C.ar    
  63 C63          -15.9901    -0.2198    -1.0697 C.ar    
  64 C64          -17.1825     0.3067    -1.4803 C.ar    
  65 C65          -17.5459     0.2328    -2.8261 C.ar    
  66 C66          -24.4258     3.5554    -3.4591 C.2     
  67 O67          -24.2917     2.5596    -4.1382 O.2     
  68 N68          -22.0036     3.5391    -3.3113 N.am    
  69 C69          -23.2139     4.2532    -2.8974 C.3     
  70 C70          -23.1633     5.6894    -3.4225 C.3     
  71 C71          -22.0054     6.4355    -2.7565 C.3     
  72 S72          -21.9454     8.1382    -3.3791 S.3     
  73 C73          -20.5338     8.8488    -2.4886 C.3     
  74 C74          -27.9705     4.3445    -3.8776 C.2     
  75 O75          -27.8103     5.4993    -3.5435 O.2     
  76 N76          -25.6586     4.0380    -3.2066 N.am    
  77 C77          -26.8367     3.3596    -3.7526 C.3     
  78 C78          -27.2499     2.2223    -2.8163 C.3     
  79 C79          -26.1654     1.1764    -2.7873 C.ar    
  80 C80          -25.1468     1.2625    -1.8567 C.ar    
  81 C81          -24.1520     0.3031    -1.8301 C.ar    
  82 C82          -24.1759    -0.7426    -2.7338 C.ar    
  83 C83          -25.1949    -0.8292    -3.6639 C.ar    
  84 C84          -26.1921     0.1278    -3.6876 C.ar    
  85 C85          -30.9934     4.9962    -3.1665 C.2     
  86 O86          -30.6293     4.3335    -2.2241 O.2     
  87 N87          -29.1626     3.9419    -4.3606 N.am    
  88 C88          -30.2648     4.8993    -4.4821 C.3     
  89 C89          -31.2336     4.4266    -5.5680 C.3     
  90 C90          -32.3163     5.4863    -5.7819 C.3     
  91 C91          -33.2114     5.0719    -6.9515 C.3     
  92 C92          -31.8851     3.1123    -5.1332 C.3     
  93 O93          -32.0468     5.8187    -3.0416 O.3     
  94 C94            3.6661    -1.2983     0.5966 C.2     
  95 O95            4.0605    -0.1528     0.6522 O.2     
  96 C96           20.7833    -6.5592     6.1205 C.3     
  97 C97           19.8401    -5.4074     5.7673 C.3     
  98 C98           18.4707    -5.9697     5.3810 C.3     
  99 C99           17.5275    -4.8179     5.0279 C.3     
 100 C100          16.1581    -5.3802     4.6416 C.3     
 101 C101          15.2149    -4.2284     4.2885 C.3     
 102 C102          13.8455    -4.7908     3.9022 C.3     
 103 C103          12.9023    -3.6389     3.5490 C.3     
 104 C104          11.5329    -4.2013     3.1627 C.3     
 105 C105          10.5897    -3.0494     2.8096 C.3     
 106 C106           9.2202    -3.6118     2.4233 C.3     
 107 C107           8.2771    -2.4600     2.0702 C.3     
 108 C108           6.9076    -3.0223     1.6839 C.3     
 109 C109           5.9645    -1.8705     1.3307 C.3     
 110 C110           4.5950    -2.4328     0.9444 C.3     
 111 H111           2.0815    -2.4729     0.1793 H       
 112 H112           1.7138     0.4038     0.5214 H       
 113 H113           1.0087     0.7462    -1.8364 H       
 114 H114           3.8092    -0.4482    -1.6503 H       
 115 H115           3.2449     0.7759    -2.8128 H       
 116 H116           3.3750     1.1828    -1.0849 H       
 117 H117           0.5208    -1.5398    -2.3280 H       
 118 H118          -0.7158     0.9670    -0.0002 H       
 119 H119          -2.4408    -1.3646    -0.3400 H       
 120 H120          -3.7435    -0.8988     1.7179 H       
 121 H121          -2.0596    -1.3219     2.1098 H       
 122 H122          -2.5854     0.3778     2.1620 H       
 123 H123          -4.9336    -0.3677    -0.1053 H       
 124 H124          -5.0070     2.4303    -0.9381 H       
 125 H125          -5.8165     0.1544    -2.8019 H       
 126 H126          -6.2063     1.8698    -3.0734 H       
 127 H127          -3.7884     2.4197    -3.0705 H       
 128 H128          -3.3986     0.7042    -2.7990 H       
 129 H129          -4.5137     0.1131    -4.9335 H       
 130 H130          -4.9035     1.8285    -5.2049 H       
 131 H131          -2.1181     1.6027    -4.7959 H       
 132 H132          -3.5750     0.6998    -8.4097 H       
 133 H133          -0.7015     1.6217    -6.7098 H       
 134 H134          -1.3270     1.2403    -8.2218 H       
 135 H135          -7.6009     2.7844    -1.6805 H       
 136 H136          -9.3028     1.1544     0.0569 H       
 137 H137          -8.2211     2.8760     1.5544 H       
 138 H138          -8.9614     4.1449     0.5493 H       
 139 H139         -11.2138     3.1242     1.0174 H       
 140 H140          -9.5488     1.3999     2.9046 H       
 141 H141         -11.3246     1.5143     2.9477 H       
 142 H142         -10.5109     0.8365     1.5171 H       
 143 H143         -10.3597     5.0270     2.3584 H       
 144 H144         -11.3436     3.9315     3.3584 H       
 145 H145          -9.5679     3.8866     3.4723 H       
 146 H146         -11.6945     1.9066    -0.1988 H       
 147 H147         -12.1691     3.5830    -2.5422 H       
 148 H148         -12.7344     0.5848    -2.5431 H       
 149 H149         -13.3583     1.7309    -3.7536 H       
 150 H150         -11.0366     2.3654    -4.3497 H       
 151 H151         -10.4126     1.2193    -3.1392 H       
 152 H152         -11.5143    -0.6494    -4.3405 H       
 153 H153         -12.1383     0.4967    -5.5510 H       
 154 H154          -9.3348     0.8031    -5.3974 H       
 155 H155          -8.6863    -1.5165    -7.9279 H       
 156 H156         -11.7800    -1.5564    -6.3709 H       
 157 H157         -10.8398    -2.2928    -7.5527 H       
 158 H158         -14.7958     3.2596    -3.0507 H       
 159 H159         -16.2500     2.6293    -0.5981 H       
 160 H160         -16.1171     5.4590    -1.7312 H       
 161 H161         -17.2849     4.9166    -0.5022 H       
 162 H162         -15.4137     4.2950     1.0014 H       
 163 H163         -14.2459     4.8373    -0.2276 H       
 164 H164         -15.1924     7.1265    -0.1167 H       
 165 H165         -16.3602     6.5842     1.1123 H       
 166 H166         -14.4891     5.9625     2.6160 H       
 167 H167         -13.3213     6.5049     1.3870 H       
 168 H168         -13.7539     8.2174     3.0206 H       
 169 H169         -14.3434     8.7043     1.5437 H       
 170 H170         -18.7768     3.4049    -1.1238 H       
 171 H171         -19.3300     3.2423    -3.9865 H       
 172 H172         -20.1399     1.0341    -2.0431 H       
 173 H173         -20.7782     1.2100    -3.6954 H       
 174 H174         -19.1901     0.5008    -5.6830 H       
 175 H175         -16.9342    -0.6754    -5.8081 H       
 176 H176         -14.8134    -1.4029    -4.0105 H       
 177 H177         -14.2012    -1.2455    -1.6390 H       
 178 H178         -15.7072    -0.1580    -0.0292 H       
 179 H179         -17.8392     0.7825    -0.7670 H       
 180 H180         -22.0107     2.9990    -4.1170 H       
 181 H181         -23.2739     4.2662    -1.8092 H       
 182 H182         -23.0141     5.6765    -4.5022 H       
 183 H183         -24.1014     6.1940    -3.1914 H       
 184 H184         -22.1546     6.4484    -1.6769 H       
 185 H185         -21.0672     5.9309    -2.9876 H       
 186 H186         -20.4008     9.8882    -2.7887 H       
 187 H187         -20.7198     8.8013    -1.4156 H       
 188 H188         -19.6325     8.2838    -2.7264 H       
 189 H189         -25.7658     4.8345    -2.6635 H       
 190 H190         -26.5988     2.9528    -4.7355 H       
 191 H191         -27.4019     2.6161    -1.8114 H       
 192 H192         -28.1767     1.7748    -3.1753 H       
 193 H193         -25.1281     2.0795    -1.1506 H       
 194 H194         -23.3558     0.3708    -1.1035 H       
 195 H195         -23.3982    -1.4918    -2.7135 H       
 196 H196         -25.2134    -1.6461    -4.3702 H       
 197 H197         -26.9903     0.0581    -4.4119 H       
 198 H198         -29.2908     3.0183    -4.6279 H       
 199 H199         -29.8678     5.8783    -4.7505 H       
 200 H200         -30.6882     4.2713    -6.4989 H       
 201 H201         -32.9186     5.5779    -4.8781 H       
 202 H202         -31.8476     6.4448    -6.0049 H       
 203 H203         -33.9827     5.8268    -7.1039 H       
 204 H204         -32.6091     4.9803    -7.8553 H       
 205 H205         -33.6801     4.1134    -6.7285 H       
 206 H206         -32.4305     3.2677    -4.2023 H       
 207 H207         -32.5753     2.7756    -5.9067 H       
 208 H208         -31.1138     2.3574    -4.9808 H       
 209 H209         -32.4819     5.8468    -2.1785 H       
 210 H210          21.7589    -6.1586     6.3957 H       
 211 H211          20.3719    -7.1217     6.9586 H       
 212 H212          20.8909    -7.2179     5.2587 H       
 213 H213          19.7325    -4.7487     6.6291 H       
 214 H214          20.2515    -4.8449     4.9292 H       
 215 H215          18.5783    -6.6284     4.5193 H       
 216 H216          18.0593    -6.5322     6.2191 H       
 217 H217          17.4199    -4.1592     5.8897 H       
 218 H218          17.9389    -4.2554     4.1898 H       
 219 H219          16.2657    -6.0389     3.7798 H       
 220 H220          15.7467    -5.9428     5.4797 H       
 221 H221          15.1073    -3.5697     5.1502 H       
 222 H222          15.6263    -3.6659     3.4503 H       
 223 H223          13.9531    -5.4494     3.0404 H       
 224 H224          13.4341    -5.3533     4.7403 H       
 225 H225          12.7947    -2.9803     4.4108 H       
 226 H226          13.3137    -3.0764     2.7109 H       
 227 H227          11.6405    -4.8600     2.3010 H       
 228 H228          11.1215    -4.7638     4.0009 H       
 229 H229          10.4821    -2.3908     3.6714 H       
 230 H230          11.0011    -2.4869     1.9715 H       
 231 H231           9.3279    -4.2705     1.5615 H       
 232 H232           8.8089    -4.1743     3.2614 H       
 233 H233           8.1695    -1.8013     2.9319 H       
 234 H234           8.6885    -1.8974     1.2320 H       
 235 H235           7.0153    -3.6810     0.8221 H       
 236 H236           6.4963    -3.5848     2.5220 H       
 237 H237           5.8569    -1.2118     2.1925 H       
 238 H238           6.3759    -1.3080     0.4926 H       
 239 H239           4.1837    -2.9953     1.7826 H       
 240 H240           4.7027    -3.0915     0.0827 H       
@<TRIPOS>BOND
   1    1    2 2
   2    1    4 1
   3    1   10 am
   4    3   94 am
   5    3    4 1
   6    3  111 1
   7    4    5 1
   8    4  112 1
   9    5    6 1
  10    5    7 1
  11    5  113 1
  12    6  114 1
  13    6  115 1
  14    6  116 1
  15    7  117 1
  16    8    9 2
  17    8   11 1
  18    8   15 am
  19   10   11 1
  20   10  118 1
  21   11   12 1
  22   11  119 1
  23   12  120 1
  24   12  121 1
  25   12  122 1
  26   13   14 2
  27   13   16 1
  28   13   26 am
  29   15   16 1
  30   15  123 1
  31   16   17 1
  32   16  124 1
  33   17   18 1
  34   17  125 1
  35   17  126 1
  36   18   19 1
  37   18  127 1
  38   18  128 1
  39   19   20 1
  40   19  129 1
  41   19  130 1
  42   20   21 1
  43   20  131 1
  44   21   22 2
  45   21   23 1
  46   22  132 1
  47   23  133 1
  48   23  134 1
  49   24   25 2
  50   24   27 1
  51   24   34 am
  52   26   27 1
  53   26  135 1
  54   27   28 1
  55   27  136 1
  56   28   29 1
  57   28  137 1
  58   28  138 1
  59   29   30 1
  60   29   31 1
  61   29  139 1
  62   30  140 1
  63   30  141 1
  64   30  142 1
  65   31  143 1
  66   31  144 1
  67   31  145 1
  68   32   33 2
  69   32   35 1
  70   32   45 am
  71   34   35 1
  72   34  146 1
  73   35   36 1
  74   35  147 1
  75   36   37 1
  76   36  148 1
  77   36  149 1
  78   37   38 1
  79   37  150 1
  80   37  151 1
  81   38   39 1
  82   38  152 1
  83   38  153 1
  84   39   40 1
  85   39  154 1
  86   40   41 2
  87   40   42 1
  88   41  155 1
  89   42  156 1
  90   42  157 1
  91   43   44 2
  92   43   46 1
  93   43   54 am
  94   45   46 1
  95   45  158 1
  96   46   47 1
  97   46  159 1
  98   47   48 1
  99   47  160 1
 100   47  161 1
 101   48   49 1
 102   48  162 1
 103   48  163 1
 104   49   50 1
 105   49  164 1
 106   49  165 1
 107   50   51 1
 108   50  166 1
 109   50  167 1
 110   51  168 1
 111   51  169 1
 112   52   53 2
 113   52   55 1
 114   52   68 am
 115   54   55 1
 116   54  170 1
 117   55   56 1
 118   55  171 1
 119   56   57 1
 120   56  172 1
 121   56  173 1
 122   57   58 2
 123   57   65 1
 124   58   59 1
 125   58  174 1
 126   59   60 1
 127   59  175 1
 128   60   61 ar
 129   60   65 ar
 130   61   62 ar
 131   61  176 1
 132   62   63 ar
 133   62  177 1
 134   63   64 ar
 135   63  178 1
 136   64   65 ar
 137   64  179 1
 138   66   67 2
 139   66   69 1
 140   66   76 am
 141   68   69 1
 142   68  180 1
 143   69   70 1
 144   69  181 1
 145   70   71 1
 146   70  182 1
 147   70  183 1
 148   71   72 1
 149   71  184 1
 150   71  185 1
 151   72   73 1
 152   73  186 1
 153   73  187 1
 154   73  188 1
 155   74   75 2
 156   74   77 1
 157   74   87 am
 158   76   77 1
 159   76  189 1
 160   77   78 1
 161   77  190 1
 162   78   79 1
 163   78  191 1
 164   78  192 1
 165   79   80 ar
 166   79   84 ar
 167   80   81 ar
 168   80  193 1
 169   81   82 ar
 170   81  194 1
 171   82   83 ar
 172   82  195 1
 173   83   84 ar
 174   83  196 1
 175   84  197 1
 176   85   86 2
 177   85   88 1
 178   85   93 1
 179   87   88 1
 180   87  198 1
 181   88   89 1
 182   88  199 1
 183   89   90 1
 184   89   92 1
 185   89  200 1
 186   90   91 1
 187   90  201 1
 188   90  202 1
 189   91  203 1
 190   91  204 1
 191   91  205 1
 192   92  206 1
 193   92  207 1
 194   92  208 1
 195   93  209 1
 196   94   95 2
 197   94  110 1
 198   96   97 1
 199   96  210 1
 200   96  211 1
 201   96  212 1
 202   97   98 1
 203   97  213 1
 204   97  214 1
 205   98   99 1
 206   98  215 1
 207   98  216 1
 208   99  100 1
 209   99  217 1
 210   99  218 1
 211  100  101 1
 212  100  219 1
 213  100  220 1
 214  101  102 1
 215  101  221 1
 216  101  222 1
 217  102  103 1
 218  102  223 1
 219  102  224 1
 220  103  104 1
 221  103  225 1
 222  103  226 1
 223  104  105 1
 224  104  227 1
 225  104  228 1
 226  105  106 1
 227  105  229 1
 228  105  230 1
 229  106  107 1
 230  106  231 1
 231  106  232 1
 232  107  108 1
 233  107  233 1
 234  107  234 1
 235  108  109 1
 236  108  235 1
 237  108  236 1
 238  109  110 1
 239  109  237 1
 240  109  238 1
 241  110  239 1
 242  110  240 1

#	End of record

