#	Name: ASD02039114
#	Creating user name:	WinNT
#	Creation time:	15. 06. 2019 20:17

#	Modifying user name:	WinNT
#	Modification time:	15. 06. 2019 20:17

#	Program:	/corina/corina34_cracker 3.40 0067  02.08.2006

@<TRIPOS>MOLECULE
ASD02039114
  44   47    0    0    0
SMALL
NO_CHARGES


@<TRIPOS>ATOM
   1 N1             0.0234     1.2844    -0.3603 N.2     
   2 N2             0.0399    -0.0020    -0.3613 N.2     
   3 C3             1.2244     1.7332    -0.0873 C.2     
   4 O4             2.0204     0.6621     0.0886 O.3     
   5 C5             1.2411    -0.4221    -0.0915 C.2     
   6 N6             1.6034     3.0605     0.0025 N.pl3   
   7 C7             0.6392     4.0715    -0.0888 C.ar    
   8 C8             1.6810    -1.8604     0.0026 C.3     
   9 C9             2.1408    -2.3347    -1.3519 C.ar    
  10 C10           -0.6629     3.8296     0.3290 C.ar    
  11 C11            0.9858     5.3186    -0.5920 C.ar    
  12 C12            0.0341     6.3152    -0.6818 C.ar    
  13 C13           -1.2675     6.0711    -0.2691 C.ar    
  14 C14           -1.6133     4.8273     0.2386 C.ar    
  15 O15           -2.2038     7.0534    -0.3570 O.3     
  16 C16            3.4670    -2.1940    -1.7187 C.ar    
  17 C17            1.2371    -2.9147    -2.2229 C.ar    
  18 C18            1.6550    -3.3513    -3.4652 C.ar    
  19 C19            2.9843    -3.2065    -3.8383 C.ar    
  20 C20            3.8905    -2.6280    -2.9589 C.ar    
  21 N21            3.4139    -3.6456    -5.0943 N.am    
  22 C22            4.7214    -3.8562    -5.3327 C.2     
  23 C23            5.7454    -3.6433    -4.2505 C.3     
  24 C24            5.3329    -2.4708    -3.3646 C.3     
  25 O25            5.0789    -4.2221    -6.4324 O.2     
  26 C26           -3.5241     6.7327     0.0859 C.3     
  27 F27           -4.0241     5.6679    -0.6713 F       
  28 F28           -3.4873     6.3682     1.4360 F       
  29 H29            2.5372     3.2907     0.1287 H       
  30 H30            2.5022    -1.9433     0.7146 H       
  31 H31            0.8456    -2.4747     0.3384 H       
  32 H32           -0.9322     2.8613     0.7243 H       
  33 H33            1.9993     5.5091    -0.9127 H       
  34 H34            0.3035     7.2852    -1.0731 H       
  35 H35           -2.6269     4.6381     0.5597 H       
  36 H36            4.1715    -1.7441    -1.0348 H       
  37 H37            0.2033    -3.0270    -1.9315 H       
  38 H38            0.9488    -3.8047    -4.1449 H       
  39 H39            2.7650    -3.7999    -5.7986 H       
  40 H40            5.8212    -4.5442    -3.6415 H       
  41 H41            6.7136    -3.4325    -4.7046 H       
  42 H42            5.4535    -1.5386    -3.9166 H       
  43 H43            5.9614    -2.4494    -2.4744 H       
  44 H44           -4.1701     7.6018    -0.0384 H       
@<TRIPOS>BOND
   1    1    2 1
   2    1    3 2
   3    2    5 2
   4    3    4 1
   5    3    6 1
   6    4    5 1
   7    5    8 1
   8    6    7 1
   9    6   29 1
  10    7   10 ar
  11    7   11 ar
  12    8    9 1
  13    8   30 1
  14    8   31 1
  15    9   16 ar
  16    9   17 ar
  17   10   14 ar
  18   10   32 1
  19   11   12 ar
  20   11   33 1
  21   12   13 ar
  22   12   34 1
  23   13   14 ar
  24   13   15 1
  25   14   35 1
  26   15   26 1
  27   16   20 ar
  28   16   36 1
  29   17   18 ar
  30   17   37 1
  31   18   19 ar
  32   18   38 1
  33   19   20 ar
  34   19   21 1
  35   20   24 1
  36   21   22 am
  37   21   39 1
  38   22   23 1
  39   22   25 2
  40   23   24 1
  41   23   40 1
  42   23   41 1
  43   24   42 1
  44   24   43 1
  45   26   27 1
  46   26   28 1
  47   26   44 1

#	End of record

