#	Name: ASD02508001
#	Creating user name:	WinNT
#	Creation time:	15. 06. 2019 20:23

#	Modifying user name:	WinNT
#	Modification time:	15. 06. 2019 20:23

#	Program:	/corina/corina34_cracker 3.40 0067  02.08.2006

@<TRIPOS>MOLECULE
ASD02508001
  46   47    0    0    0
SMALL
NO_CHARGES


@<TRIPOS>ATOM
   1 C1            -0.0127     1.0858     0.0080 C.3     
   2 H2             0.0021    -0.0041     0.0020 H       
   3 H3             1.0099     1.4631     0.0003 H       
   4 H4            -0.5399     1.4469    -0.8751 H       
   5 H5            -0.5229     1.4373     0.9048 H       
   6 C6            16.8345    11.0518     7.7965 C.ar    
   7 C7            16.8533     9.6635     7.7888 C.ar    
   8 C8            15.6666     8.9573     7.7973 C.ar    
   9 C9            14.4599     9.6324     7.8133 C.ar    
  10 C10           14.4375    11.0152     7.8210 C.ar    
  11 C11           15.6211    11.7269     7.8175 C.ar    
  12 N12           18.0364    11.7661     7.7888 N.am    
  13 C13           19.1812    11.1708     7.4072 C.2     
  14 C14           19.1903     9.7328     6.9632 C.3     
  15 C15           18.1700     8.9315     7.7718 C.3     
  16 O16           20.2178    11.8005     7.4209 O.2     
  17 S17           12.9473     8.7288     7.8231 S.o2    
  18 O18           12.5123     8.4852     6.4387 O.2     
  19 O19           13.1492     7.4418     8.5074 O.3     
  20 N20           11.7879     9.6019     8.6205 N.am    
  21 C21           10.4969     9.0867     8.7580 C.ar    
  22 C22            9.8451     9.1594     9.9828 C.ar    
  23 C23            9.8598     8.5056     7.6692 C.ar    
  24 C24            8.5831     7.9970     7.8087 C.ar    
  25 C25            7.9394     8.0663     9.0304 C.ar    
  26 C26            8.5689     8.6490    10.1153 C.ar    
  27 C27            7.8634     8.7222    11.4449 C.3     
  28 C28            6.5462     7.5112     9.1785 C.3     
  29 H29           15.6810     7.8775     7.7911 H       
  30 H30           13.4933    11.5392     7.8331 H       
  31 H31           15.6030    12.8067     7.8233 H       
  32 H32           18.0450    12.6974     8.0602 H       
  33 H33           18.9354     9.6792     5.9048 H       
  34 H34           20.1844     9.3129     7.1166 H       
  35 H35           18.5306     8.8104     8.7933 H       
  36 H36           18.0349     7.9507     7.3159 H       
  37 H37           12.0052    10.4712     8.9920 H       
  38 H38           10.3362     9.6142    10.8304 H       
  39 H39           10.3618     8.4518     6.7145 H       
  40 H40            8.0871     7.5451     6.9625 H       
  41 H41            8.0889     7.8278    12.0257 H       
  42 H42            8.2032     9.6037    11.9885 H       
  43 H43            6.7876     8.7880    11.2822 H       
  44 H44            6.6020     6.4631     9.4725 H       
  45 H45            6.0099     8.0747     9.9421 H       
  46 H46            6.0190     7.5944     8.2282 H       
@<TRIPOS>BOND
   1    1    2 1
   2    1    3 1
   3    1    4 1
   4    1    5 1
   5    6    7 ar
   6    6   12 1
   7    6   11 ar
   8    7    8 ar
   9    7   15 1
  10    8    9 ar
  11    8   29 1
  12    9   10 ar
  13    9   17 1
  14   10   11 ar
  15   10   30 1
  16   11   31 1
  17   12   13 am
  18   12   32 1
  19   13   14 1
  20   13   16 2
  21   14   15 1
  22   14   33 1
  23   14   34 1
  24   15   35 1
  25   15   36 1
  26   17   18 2
  27   17   19 1
  28   17   20 am
  29   20   21 1
  30   20   37 1
  31   21   22 ar
  32   21   23 ar
  33   22   26 ar
  34   22   38 1
  35   23   24 ar
  36   23   39 1
  37   24   25 ar
  38   24   40 1
  39   25   26 ar
  40   25   28 1
  41   26   27 1
  42   27   41 1
  43   27   42 1
  44   27   43 1
  45   28   44 1
  46   28   45 1
  47   28   46 1

#	End of record

