#	Name: ASD01900508
#	Creating user name:	WinNT
#	Creation time:	15. 06. 2019 19:52

#	Modifying user name:	WinNT
#	Modification time:	15. 06. 2019 19:52

#	Program:	/corina/corina34_cracker 3.40 0067  02.08.2006

@<TRIPOS>MOLECULE
ASD01900508
  48   51    0    0    0
SMALL
NO_CHARGES


@<TRIPOS>ATOM
   1 C1            -0.0169     1.3984     0.0097 C.ar    
   2 C2             0.0021    -0.0041     0.0020 C.ar    
   3 C3             1.2284    -0.6631    -0.0136 C.ar    
   4 C4             2.3818     0.0993    -0.0210 C.ar    
   5 C5             2.2872     1.4835    -0.0126 C.ar    
   6 N6             1.1191     2.0865     0.0026 N.ar    
   7 O7            -1.2777    -0.4259     0.0124 O.3     
   8 N8            -2.1416     0.6928     0.0270 N.2     
   9 C9            -1.4369     1.7900     0.0313 C.2     
  10 N10           -1.9327     3.0861     0.0455 N.pl3   
  11 N11           -5.2933     4.2913     0.0982 N.am    
  12 C12           -3.9421     4.5102     0.0810 C.2     
  13 C13           -3.3222     3.3077     0.0657 C.2     
  14 C14           -4.3278     2.3160     0.0738 C.2     
  15 C15           -5.5193     2.9472     0.0937 C.2     
  16 S16           -6.4605     5.4656     0.1270 S.o2    
  17 O17           -7.6218     4.8636     0.6821 O.2     
  18 O18           -5.8491     6.6256     0.6747 O.2     
  19 C19           -6.8523     5.8528    -1.5466 C.ar    
  20 C20           -7.8551     5.1607    -2.1996 C.ar    
  21 C21           -8.1625     5.4644    -3.5127 C.ar    
  22 C22           -7.4674     6.4605    -4.1726 C.ar    
  23 C23           -6.4652     7.1532    -3.5194 C.ar    
  24 C24           -6.1608     6.8524    -2.2049 C.ar    
  25 C25           -7.8018     6.7909    -5.6044 C.3     
  26 C26           -9.2627     7.2358    -5.6973 C.3     
  27 C27           -6.8927     7.9203    -6.0929 C.3     
  28 C28           -7.5896     5.5519    -6.4767 C.3     
  29 H29            1.2774    -1.7420    -0.0196 H       
  30 H30            3.3499    -0.3794    -0.0327 H       
  31 H31            3.1897     2.0765    -0.0183 H       
  32 H32           -1.3215     3.8393     0.0414 H       
  33 H33           -3.4558     5.4745     0.0793 H       
  34 H34           -4.1712     1.2474     0.0656 H       
  35 H35           -6.4876     2.4691     0.1038 H       
  36 H36           -8.3981     4.3825    -1.6840 H       
  37 H37           -8.9454     4.9232    -4.0230 H       
  38 H38           -5.9220     7.9312    -4.0351 H       
  39 H39           -5.3803     7.3962    -1.6934 H       
  40 H40           -9.4139     8.1185    -5.0759 H       
  41 H41           -9.5046     7.4748    -6.7329 H       
  42 H42           -9.9104     6.4312    -5.3493 H       
  43 H43           -5.8519     7.6034    -6.0268 H       
  44 H44           -7.1346     8.1593    -7.1286 H       
  45 H45           -7.0439     8.8030    -5.4715 H       
  46 H46           -8.2373     4.7473    -6.1287 H       
  47 H47           -7.8315     5.7909    -7.5123 H       
  48 H48           -6.5488     5.2349    -6.4105 H       
@<TRIPOS>BOND
   1    1    2 ar
   2    1    6 ar
   3    1    9 1
   4    2    3 ar
   5    2    7 1
   6    3    4 ar
   7    3   29 1
   8    4    5 ar
   9    4   30 1
  10    5    6 ar
  11    5   31 1
  12    7    8 1
  13    8    9 2
  14    9   10 1
  15   10   13 1
  16   10   32 1
  17   11   12 1
  18   11   15 1
  19   11   16 am
  20   12   13 2
  21   12   33 1
  22   13   14 1
  23   14   15 2
  24   14   34 1
  25   15   35 1
  26   16   17 2
  27   16   18 2
  28   16   19 1
  29   19   20 ar
  30   19   24 ar
  31   20   21 ar
  32   20   36 1
  33   21   22 ar
  34   21   37 1
  35   22   23 ar
  36   22   25 1
  37   23   24 ar
  38   23   38 1
  39   24   39 1
  40   25   26 1
  41   25   28 1
  42   25   27 1
  43   26   40 1
  44   26   41 1
  45   26   42 1
  46   27   43 1
  47   27   44 1
  48   27   45 1
  49   28   46 1
  50   28   47 1
  51   28   48 1

#	End of record

