#	Name: ASD03090662
#	Creating user name:	WinNT
#	Creation time:	15. 06. 2019 20:29

#	Modifying user name:	WinNT
#	Modification time:	15. 06. 2019 20:29

#	Program:	/corina/corina34_cracker 3.40 0067  02.08.2006

@<TRIPOS>MOLECULE
ASD03090662
  46   49    0    0    0
SMALL
NO_CHARGES


@<TRIPOS>ATOM
   1 C1            -0.0169     1.3914     0.0097 C.ar    
   2 C2             0.0021    -0.0041     0.0020 C.ar    
   3 C3             1.2368    -0.6634    -0.0133 C.ar    
   4 C4             2.3894     0.1027    -0.0202 C.ar    
   5 C5             2.2856     1.4819    -0.0118 C.ar    
   6 N6             1.1076     2.0763     0.0026 N.ar    
   7 C7            -1.2606    -0.7730     0.0104 C.2     
   8 O8            -1.2322    -1.9882     0.0036 O.2     
   9 N9            -2.4431    -0.1266     0.0256 N.am    
  10 C10            3.5384     2.3195    -0.0192 C.3     
  11 F11            3.9135     2.5857    -1.3404 F       
  12 F12            3.2975     3.5247     0.6491 F       
  13 F13            4.5671     1.6255     0.6268 F       
  14 C14           -3.6944    -0.8886     0.0339 C.3     
  15 N15           -8.0653     2.6706    -0.1979 N.pl3   
  16 C16           -8.2067     2.7822    -1.5542 C.2     
  17 C17           -7.2833     2.0295    -2.1730 C.2     
  18 C18           -6.4867     1.3842    -1.1262 C.ar    
  19 C19           -5.4035     0.5016    -1.1375 C.ar    
  20 C20           -4.8623     0.0636     0.0506 C.ar    
  21 C21           -5.3834     0.4912     1.2615 C.ar    
  22 C22           -6.4601     1.3679     1.2961 C.ar    
  23 C23           -7.0228     1.8234     0.0959 C.ar    
  24 C24           -9.2449     3.6243    -2.2498 C.3     
  25 F25           -8.7343     4.9084    -2.4677 F       
  26 F26           -9.5742     3.0390    -3.4771 F       
  27 F27          -10.3901     3.7072    -1.4506 F       
  28 C28           -8.0077     2.6348     4.9447 C.ar    
  29 N29           -7.8239     1.3452     4.7423 N.ar    
  30 C30           -7.3348     0.8996     3.5978 C.ar    
  31 C31           -7.0120     1.8194     2.5964 C.ar    
  32 C32           -7.2233     3.1766     2.8545 C.ar    
  33 N33           -7.7166     3.5356     4.0272 N.ar    
  34 H34           -0.9620     1.9140     0.0170 H       
  35 H35            1.2887    -1.7421    -0.0192 H       
  36 H36            3.3597    -0.3714    -0.0316 H       
  37 H37           -2.4658     0.8431     0.0310 H       
  38 H38           -3.7463    -1.5116    -0.8590 H       
  39 H39           -3.7286    -1.5212     0.9209 H       
  40 H40           -8.6160     3.1248     0.4588 H       
  41 H41           -7.1527     1.9202    -3.2395 H       
  42 H42           -4.9922     0.1622    -2.0767 H       
  43 H43           -4.9490     0.1395     2.1857 H       
  44 H44           -8.4135     2.9633     5.8902 H       
  45 H45           -7.1867    -0.1583     3.4394 H       
  46 H46           -6.9869     3.9203     2.1079 H       
@<TRIPOS>BOND
   1    1    2 ar
   2    1    6 ar
   3    1   34 1
   4    2    3 ar
   5    2    7 1
   6    3    4 ar
   7    3   35 1
   8    4    5 ar
   9    4   36 1
  10    5    6 ar
  11    5   10 1
  12    7    8 2
  13    7    9 am
  14    9   14 1
  15    9   37 1
  16   10   11 1
  17   10   12 1
  18   10   13 1
  19   14   20 1
  20   14   38 1
  21   14   39 1
  22   15   16 1
  23   15   23 1
  24   15   40 1
  25   16   17 2
  26   16   24 1
  27   17   18 1
  28   17   41 1
  29   18   19 ar
  30   18   23 ar
  31   19   20 ar
  32   19   42 1
  33   20   21 ar
  34   21   22 ar
  35   21   43 1
  36   22   23 ar
  37   22   31 1
  38   24   25 1
  39   24   26 1
  40   24   27 1
  41   28   29 ar
  42   28   33 ar
  43   28   44 1
  44   29   30 ar
  45   30   31 ar
  46   30   45 1
  47   31   32 ar
  48   32   33 ar
  49   32   46 1

#	End of record

