#	Name: ASD02198694
#	Creating user name:	WinNT
#	Creation time:	15. 06. 2019 20:20

#	Modifying user name:	WinNT
#	Modification time:	15. 06. 2019 20:20

#	Program:	/corina/corina34_cracker 3.40 0067  02.08.2006

@<TRIPOS>MOLECULE
ASD02198694
  49   53    0    0    0
SMALL
NO_CHARGES


@<TRIPOS>ATOM
   1 C1            -0.0433     1.5018    -0.1151 C.2     
   2 C2            -0.0730     0.1620     0.0974 C.2     
   3 N3             1.0712    -0.5396     0.2602 N.pl3   
   4 N4             2.2357    -0.0048     0.2266 N.2     
   5 C5             2.4072     1.2847     0.0280 C.2     
   6 C6             1.2215     2.1357    -0.1605 C.2     
   7 C7             0.9796    -1.9186     0.4766 C.ar    
   8 C8             1.5810    -2.4906     1.5971 C.ar    
   9 C9             1.4885    -3.8561     1.8083 C.ar    
  10 C10            0.7978    -4.6518     0.9049 C.ar    
  11 C11            0.1996    -4.0798    -0.2112 C.ar    
  12 C12            0.2848    -2.7185    -0.4212 C.ar    
  13 C13            3.7641     1.8671    -0.0041 C.2     
  14 N14            4.3065     2.6070    -1.0171 N.pl3   
  15 N15            5.6081     2.9588    -0.6387 N.2     
  16 C16            5.8514     2.4596     0.5469 C.2     
  17 C17            4.7194     1.7719     0.9841 C.2     
  18 C18            3.6740     2.9512    -2.2185 C.ar    
  19 C19            3.8079     4.2343    -2.7325 C.ar    
  20 C20            3.1834     4.5704    -3.9176 C.ar    
  21 C21            2.4255     3.6309    -4.5922 C.ar    
  22 C22            2.2899     2.3525    -4.0827 C.ar    
  23 C23            2.9165     2.0085    -2.9010 C.ar    
  24 O24            1.3245     3.3388    -0.3487 O.2     
  25 N25            0.7040    -6.0339     1.1184 N.pl3   
  26 C26            0.0694    -6.9214     0.3194 C.2     
  27 N27            1.2560    -6.7413     2.1941 N.2     
  28 C28            0.9577    -8.0072     2.0477 C.2     
  29 C29            0.2098    -8.1480     0.8735 C.2     
  30 O30            2.2572    -1.7095     2.4800 O.3     
  31 C31            2.8479    -2.3636     3.6049 C.3     
  32 H32           -0.9546     2.0654    -0.2496 H       
  33 H33           -1.0229    -0.3505     0.1373 H       
  34 H34            1.9537    -4.3015     2.6752 H       
  35 H35           -0.3370    -4.7010    -0.9130 H       
  36 H36           -0.1810    -2.2763    -1.2895 H       
  37 H37            6.7746     2.5662     1.0972 H       
  38 H38            4.6131     1.2526     1.9251 H       
  39 H39            4.3994     4.9686    -2.2059 H       
  40 H40            3.2869     5.5683    -4.3177 H       
  41 H41            1.9381     3.8962    -5.5188 H       
  42 H42            1.6969     1.6211    -4.6117 H       
  43 H43            2.8105     1.0098    -2.5038 H       
  44 H44           -0.4554    -6.6924    -0.5963 H       
  45 H45            1.2422    -8.8061     2.7165 H       
  46 H46           -0.1856    -9.0724     0.4791 H       
  47 H47            2.0704    -2.8583     4.1871 H       
  48 H48            3.5683    -3.1042     3.2575 H       
  49 H49            3.3555    -1.6273     4.2281 H       
@<TRIPOS>BOND
   1    1    2 2
   2    1    6 1
   3    1   32 1
   4    2    3 1
   5    2   33 1
   6    3    4 1
   7    3    7 1
   8    4    5 2
   9    5    6 1
  10    5   13 1
  11    6   24 2
  12    7    8 ar
  13    7   12 ar
  14    8    9 ar
  15    8   30 1
  16    9   10 ar
  17    9   34 1
  18   10   11 ar
  19   10   25 1
  20   11   12 ar
  21   11   35 1
  22   12   36 1
  23   13   14 1
  24   13   17 2
  25   14   15 1
  26   14   18 1
  27   15   16 2
  28   16   17 1
  29   16   37 1
  30   17   38 1
  31   18   19 ar
  32   18   23 ar
  33   19   20 ar
  34   19   39 1
  35   20   21 ar
  36   20   40 1
  37   21   22 ar
  38   21   41 1
  39   22   23 ar
  40   22   42 1
  41   23   43 1
  42   25   27 1
  43   25   26 1
  44   26   29 2
  45   26   44 1
  46   27   28 2
  47   28   29 1
  48   28   45 1
  49   29   46 1
  50   30   31 1
  51   31   47 1
  52   31   48 1
  53   31   49 1

#	End of record

