#	Name: ASD02448083
#	Creating user name:	WinNT
#	Creation time:	15. 06. 2019 20:21

#	Modifying user name:	WinNT
#	Modification time:	15. 06. 2019 20:21

#	Program:	/corina/corina34_cracker 3.40 0067  02.08.2006

@<TRIPOS>MOLECULE
ASD02448083
  80   85    0    0    0
SMALL
NO_CHARGES


@<TRIPOS>ATOM
   1 C1             1.3596     1.0561     0.9139 C.ar    
   2 C2             1.5339    -0.2917     0.6713 C.ar    
   3 C3             2.7997    -0.7888     0.3919 C.ar    
   4 C4             3.8907     0.0690     0.3568 C.ar    
   5 C5             3.7172     1.4168     0.5993 C.ar    
   6 C6             2.4509     1.9148     0.8785 C.ar    
   7 N7             2.2747     3.2799     1.1237 N.am    
   8 C8             2.5981     4.4053     0.2370 C.3     
   9 C9             2.2558     5.7140     0.8729 C.2     
  10 N10            1.7306     5.6205     2.1026 N.am    
  11 S11            1.6422     4.0034     2.4875 S.o2    
  12 O12            2.4392     6.7775     0.3195 O.2     
  13 O13            0.2642     3.6623     2.5511 O.2     
  14 O14            2.5659     3.7724     3.5423 O.2     
  15 N15            2.9765    -2.1592     0.1453 N.pl3   
  16 C16            2.6056    -3.1868     0.9703 C.2     
  17 C17            3.5421    -2.7124    -0.9591 C.2     
  18 N18            3.5318    -4.0102    -0.8331 N.2     
  19 C19            2.9621    -4.3387     0.3441 C.2     
  20 C20            2.7604    -5.7137     0.8634 C.ar    
  21 C21            3.1760    -6.8134     0.1125 C.ar    
  22 C22            2.1605    -5.9110     2.1052 C.ar    
  23 C23            1.9750    -7.1922     2.5840 C.ar    
  24 C24            2.3837    -8.2807     1.8330 C.ar    
  25 C25            2.9857    -8.0909     0.6008 C.ar    
  26 Cl26           2.1477    -9.8892     2.4418 Cl      
  27 Cl27           3.9304    -6.5763    -1.4330 Cl      
  28 C28            4.0913    -1.9506    -2.1377 C.3     
  29 C29            3.0396    -1.8631    -3.2135 C.ar    
  30 C30            2.2213    -0.7504    -3.2883 C.ar    
  31 C31            2.9000    -2.8932    -4.1260 C.ar    
  32 C32            1.9388    -2.8181    -5.1136 C.ar    
  33 C33            1.1082    -1.7020    -5.1904 C.ar    
  34 C34            1.2568    -0.6649    -4.2718 C.ar    
  35 C35            0.0734    -1.6154    -6.2504 C.ar    
  36 C36           -0.7572    -0.4993    -6.3272 C.ar    
  37 C37           -0.0675    -2.6473    -7.1760 C.ar    
  38 C38           -1.0318    -2.5616    -8.1598 C.ar    
  39 C39           -1.8571    -1.4537    -8.2281 C.ar    
  40 C40           -1.7181    -0.4240    -7.3151 C.ar    
  41 C41           -2.9074    -1.3653    -9.3052 C.3     
  42 C42           -3.8760    -2.5421    -9.1708 C.3     
  43 C43           -3.6779    -0.0515    -9.1596 C.3     
  44 C44           -2.2348    -1.4127   -10.6786 C.3     
  45 C45            1.8092     4.2595    -1.0658 C.3     
  46 C46            2.3038     3.0276    -1.8264 C.3     
  47 H47            0.3742     1.4435     1.1269 H       
  48 H48            0.6856    -0.9594     0.6992 H       
  49 H49            4.8753    -0.3183     0.1401 H       
  50 H50            4.5661     2.0840     0.5723 H       
  51 H51            3.6642     4.3864     0.0106 H       
  52 H52            1.4504     6.3599     2.6644 H       
  53 H53            2.1231    -3.0989     1.9326 H       
  54 H54            1.8414    -5.0626     2.6925 H       
  55 H55            1.5103    -7.3456     3.5468 H       
  56 H56            3.3028    -8.9435     0.0186 H       
  57 H57            4.3724    -0.9459    -1.8219 H       
  58 H58            4.9680    -2.4674    -2.5279 H       
  59 H59            2.3371     0.0527    -2.5756 H       
  60 H60            3.5446    -3.7577    -4.0658 H       
  61 H61            1.8309    -3.6228    -5.8258 H       
  62 H62            0.6154     0.2023    -4.3266 H       
  63 H63           -0.6495     0.3053    -5.6148 H       
  64 H64            0.5768    -3.5125    -7.1239 H       
  65 H65           -1.1419    -3.3609    -8.8777 H       
  66 H66           -2.3654     0.4386    -7.3728 H       
  67 H67           -4.3551    -2.5084    -8.1924 H       
  68 H68           -4.6357    -2.4782    -9.9498 H       
  69 H69           -3.3271    -3.4781    -9.2745 H       
  70 H70           -2.9879     0.7868    -9.2553 H       
  71 H71           -4.4376     0.0124    -9.9386 H       
  72 H72           -4.1571    -0.0178    -8.1812 H       
  73 H73           -1.6859    -2.3486   -10.7823 H       
  74 H74           -2.9946    -1.3487   -11.4576 H       
  75 H75           -1.5449    -0.5743   -10.7743 H       
  76 H76            0.7495     4.1446    -0.8379 H       
  77 H77            1.9545     5.1483    -1.6798 H       
  78 H78            3.3869     3.0799    -1.9376 H       
  79 H79            2.0385     2.1275    -1.2720 H       
  80 H80            1.8385     2.9979    -2.8117 H       
@<TRIPOS>BOND
   1    1    2 ar
   2    1    6 ar
   3    1   47 1
   4    2    3 ar
   5    2   48 1
   6    3    4 ar
   7    3   15 1
   8    4    5 ar
   9    4   49 1
  10    5    6 ar
  11    5   50 1
  12    6    7 1
  13    7    8 1
  14    7   11 am
  15    8    9 1
  16    8   45 1
  17    8   51 1
  18    9   10 am
  19    9   12 2
  20   10   11 am
  21   10   52 1
  22   11   13 2
  23   11   14 2
  24   15   16 1
  25   15   17 1
  26   16   19 2
  27   16   53 1
  28   17   18 2
  29   17   28 1
  30   18   19 1
  31   19   20 1
  32   20   21 ar
  33   20   22 ar
  34   21   27 1
  35   21   25 ar
  36   22   23 ar
  37   22   54 1
  38   23   24 ar
  39   23   55 1
  40   24   25 ar
  41   24   26 1
  42   25   56 1
  43   28   29 1
  44   28   57 1
  45   28   58 1
  46   29   30 ar
  47   29   31 ar
  48   30   34 ar
  49   30   59 1
  50   31   32 ar
  51   31   60 1
  52   32   33 ar
  53   32   61 1
  54   33   34 ar
  55   33   35 1
  56   34   62 1
  57   35   36 ar
  58   35   37 ar
  59   36   40 ar
  60   36   63 1
  61   37   38 ar
  62   37   64 1
  63   38   39 ar
  64   38   65 1
  65   39   41 1
  66   39   40 ar
  67   40   66 1
  68   41   42 1
  69   41   44 1
  70   41   43 1
  71   42   67 1
  72   42   68 1
  73   42   69 1
  74   43   70 1
  75   43   71 1
  76   43   72 1
  77   44   73 1
  78   44   74 1
  79   44   75 1
  80   45   46 1
  81   45   76 1
  82   45   77 1
  83   46   78 1
  84   46   79 1
  85   46   80 1

#	End of record

