#	Name: ASD09720072
#	Creating user name:	WinNT
#	Creation time:	15. 06. 2019 21:22

#	Modifying user name:	WinNT
#	Modification time:	15. 06. 2019 21:22

#	Program:	/corina/corina34_cracker 3.40 0067  02.08.2006

@<TRIPOS>MOLECULE
ASD09720072
  46   48    0    0    0
SMALL
NO_CHARGES


@<TRIPOS>ATOM
   1 C1             0.0650     1.4631     0.4920 C.2     
   2 C2             0.1524     0.0352     0.8325 C.2     
   3 N3             1.3095    -0.5418     0.9133 N.2     
   4 C4            -1.1040    -0.7569     1.0875 C.3     
   5 O5             2.4901     0.2025     0.6738 O.3     
   6 S6            -0.6673    -2.4723     1.4843 S.3     
   7 C7            -2.2362    -3.2302     1.7463 C.ar    
   8 C8            -3.4006    -2.4823     1.6212 C.ar    
   9 C9            -4.6285    -3.0798     1.8274 C.ar    
  10 C10           -4.7002    -4.4206     2.1579 C.ar    
  11 C11           -3.5431    -5.1681     2.2838 C.ar    
  12 C12           -2.3124    -4.5791     2.0731 C.ar    
  13 C13            1.1023     2.2716     0.0738 C.2     
  14 C14            0.5843     3.5476    -0.1392 C.2     
  15 N15           -0.6967     3.5321     0.1304 N.2     
  16 N16           -1.0592     2.2380     0.5244 N.pl3   
  17 C17           -2.4015     1.7971     0.9115 C.3     
  18 C18           -2.6526     2.1139     2.3962 C.3     
  19 C19           -3.8601     3.0728     2.4441 C.3     
  20 C20           -4.6165     2.7975     1.1208 C.3     
  21 C21           -3.4651     2.5745     0.1090 C.3     
  22 C22           -1.0524    -5.3943     2.2105 C.3     
  23 F23           -1.3830    -6.7093     2.5550 F       
  24 F24           -0.3598    -5.3908     0.9949 F       
  25 F25           -0.2446    -4.8397     3.2090 F       
  26 C26            1.3694     4.7476    -0.6027 C.3     
  27 F27            1.3528     4.8042    -2.0004 F       
  28 F28            0.7932     5.9112    -0.0820 F       
  29 F29            2.6908     4.6412    -0.1559 F       
  30 H30           -1.6471    -0.3174     1.9241 H       
  31 H31           -1.7321    -0.7386     0.1968 H       
  32 H32            3.3039    -0.3132     0.7571 H       
  33 H33           -3.3454    -1.4350     1.3634 H       
  34 H34           -5.5339    -2.4990     1.7306 H       
  35 H35           -5.6618    -4.8851     2.3185 H       
  36 H36           -3.6028    -6.2149     2.5428 H       
  37 H37            2.1302     1.9700    -0.0632 H       
  38 H38           -2.5080     0.7267     0.7349 H       
  39 H39           -2.8819     1.1974     2.9400 H       
  40 H40           -1.7757     2.5957     2.8287 H       
  41 H41           -4.4945     2.8449     3.3007 H       
  42 H42           -3.5232     4.1088     2.4826 H       
  43 H43           -5.2333     1.9030     1.2074 H       
  44 H44           -5.2207     3.6585     0.8349 H       
  45 H45           -3.0645     3.5300    -0.2297 H       
  46 H46           -3.8113     1.9830    -0.7385 H       
@<TRIPOS>BOND
   1    1    2 1
   2    1   13 2
   3    1   16 1
   4    2    3 2
   5    2    4 1
   6    3    5 1
   7    4    6 1
   8    4   30 1
   9    4   31 1
  10    5   32 1
  11    6    7 1
  12    7    8 ar
  13    7   12 ar
  14    8    9 ar
  15    8   33 1
  16    9   10 ar
  17    9   34 1
  18   10   11 ar
  19   10   35 1
  20   11   12 ar
  21   11   36 1
  22   12   22 1
  23   13   14 1
  24   13   37 1
  25   14   15 2
  26   14   26 1
  27   15   16 1
  28   16   17 1
  29   17   18 1
  30   17   21 1
  31   17   38 1
  32   18   19 1
  33   18   39 1
  34   18   40 1
  35   19   20 1
  36   19   41 1
  37   19   42 1
  38   20   21 1
  39   20   43 1
  40   20   44 1
  41   21   45 1
  42   21   46 1
  43   22   23 1
  44   22   24 1
  45   22   25 1
  46   26   27 1
  47   26   28 1
  48   26   29 1

#	End of record

