#	Name: ASD00510014
#	Creating user name:	WinNT
#	Creation time:	15. 06. 2019 18:36

#	Modifying user name:	WinNT
#	Modification time:	15. 06. 2019 18:36

#	Program:	/corina/corina34_cracker 3.40 0067  02.08.2006

@<TRIPOS>MOLECULE
ASD00510014
  37   40    0    0    0
SMALL
NO_CHARGES


@<TRIPOS>ATOM
   1 C1            -0.0169     1.3950     0.0097 C.ar    
   2 C2             0.0021    -0.0041     0.0020 C.ar    
   3 C3             1.1966    -0.6621    -0.0129 C.ar    
   4 C4             2.3990     0.0399    -0.0201 C.ar    
   5 C5             2.4160     1.4018    -0.0124 C.ar    
   6 C6             1.2037     2.1121     0.0019 C.ar    
   7 C7             1.1824     3.5187     0.0085 C.ar    
   8 C8             0.0049     4.1974     0.0224 C.ar    
   9 C9            -1.2232     3.5377     0.0306 C.ar    
  10 C10           -1.2755     2.1410     0.0196 C.ar    
  11 N11           -2.4679     1.4909     0.0218 N.2     
  12 N12           -3.5689     2.1629     0.0306 N.2     
  13 O13           -2.3743     4.2556     0.0444 O.3     
  14 C14           -4.7644     1.5111     0.0328 C.ar    
  15 C15           -7.2429     1.5399     0.0447 C.ar    
  16 C16           -7.2184     0.1347     0.0375 C.ar    
  17 C17           -6.0359    -0.5398     0.0332 C.ar    
  18 C18           -4.8156     0.1212     0.0315 C.ar    
  19 C19           -6.0221     2.2575     0.0428 C.ar    
  20 C20           -6.0421     3.6568     0.0509 C.ar    
  21 C21           -7.2369     4.3136     0.0604 C.ar    
  22 C22           -8.4394     3.6111     0.0627 C.ar    
  23 C23           -8.4560     2.2496     0.0550 C.ar    
  24 H24           -0.9240    -0.5598     0.0082 H       
  25 H25            1.2100    -1.7420    -0.0188 H       
  26 H26            3.3321    -0.5037    -0.0315 H       
  27 H27            3.3563     1.9330    -0.0174 H       
  28 H28            2.1133     4.0661     0.0029 H       
  29 H29            0.0212     5.2773     0.0275 H       
  30 H30           -2.7161     4.4678    -0.8349 H       
  31 H31           -8.1475    -0.4159     0.0393 H       
  32 H32           -6.0477    -1.6197     0.0277 H       
  33 H33           -3.8980    -0.4485     0.0287 H       
  34 H34           -5.1164     4.2132     0.0499 H       
  35 H35           -7.2509     5.3935     0.0667 H       
  36 H36           -9.3728     4.1544     0.0710 H       
  37 H37           -9.3961     1.7180     0.0562 H       
@<TRIPOS>BOND
   1    1    2 ar
   2    1    6 ar
   3    1   10 ar
   4    2    3 ar
   5    2   24 1
   6    3    4 ar
   7    3   25 1
   8    4    5 ar
   9    4   26 1
  10    5    6 ar
  11    5   27 1
  12    6    7 ar
  13    7    8 ar
  14    7   28 1
  15    8    9 ar
  16    8   29 1
  17    9   10 ar
  18    9   13 1
  19   10   11 1
  20   11   12 2
  21   12   14 1
  22   13   30 1
  23   14   19 ar
  24   14   18 ar
  25   15   16 ar
  26   15   19 ar
  27   15   23 ar
  28   16   17 ar
  29   16   31 1
  30   17   18 ar
  31   17   32 1
  32   18   33 1
  33   19   20 ar
  34   20   21 ar
  35   20   34 1
  36   21   22 ar
  37   21   35 1
  38   22   23 ar
  39   22   36 1
  40   23   37 1

#	End of record

