#	Name: ASD09116086
#	Creating user name:	WinNT
#	Creation time:	15. 06. 2019 21:20

#	Modifying user name:	WinNT
#	Modification time:	15. 06. 2019 21:20

#	Program:	/corina/corina34_cracker 3.40 0067  02.08.2006

@<TRIPOS>MOLECULE
ASD09116086
  50   54    0    0    0
SMALL
NO_CHARGES


@<TRIPOS>ATOM
   1 C1             0.2556     1.2965    -1.2951 C.ar    
   2 N2             0.2226    -0.0784    -1.0738 N.pl3   
   3 N3             1.2496    -0.8692    -0.5335 N.2     
   4 C4             0.8057    -2.1025    -0.4986 C.2     
   5 N5            -0.4404    -2.1346    -0.9851 N.2     
   6 C6            -0.8127    -0.9213    -1.3324 C.2     
   7 N7            -2.0341    -0.5682    -1.8728 N.pl3   
   8 N8             1.5189    -3.2054    -0.0290 N.pl3   
   9 C9             1.3980     2.0432    -0.9719 C.ar    
  10 N10           -0.7911     1.9202    -1.8202 N.ar    
  11 C11           -0.7650     3.2247    -2.0327 C.ar    
  12 N12            0.2768     3.9653    -1.7428 N.ar    
  13 C13            1.3934     3.4213    -1.2091 C.ar    
  14 C14            0.8959    -4.4531     0.0624 C.ar    
  15 C15           -0.4743    -4.5448     0.2757 C.ar    
  16 N16           -1.0406    -5.7269     0.3440 N.ar    
  17 C17           -0.3655    -6.8632     0.2145 C.ar    
  18 C18            0.9968    -6.8677     0.0317 C.ar    
  19 C19            1.6322    -5.6183    -0.0636 C.ar    
  20 C20           -1.1890    -8.1263     0.2391 C.3     
  21 C21           -1.5278    -8.5515    -1.2013 C.3     
  22 C22           -0.2091    -8.6709    -1.9796 C.3     
  23 C23            0.5356    -9.6999    -1.1839 C.2     
  24 C24            1.2758    -9.3962     0.0858 C.3     
  25 C25            1.9548    -8.0306    -0.0604 C.3     
  26 C26            2.5991     4.0345    -0.8337 C.2     
  27 C27            3.5232     3.2295    -0.3336 C.2     
  28 S28            2.9442     1.5728    -0.2815 S.3     
  29 Cl29          -2.1642     3.9860    -2.7229 Cl      
  30 O30            0.5406   -10.8380    -1.5876 O.2     
  31 C31            2.8272     5.5158    -0.9907 C.3     
  32 F32            4.1100     5.8408    -0.5367 F       
  33 F33            2.7075     5.8656    -2.3400 F       
  34 F34            1.8759     6.2161    -0.2413 F       
  35 H35           -2.7100    -1.2463    -2.0280 H       
  36 H36           -2.2157     0.3579    -2.0970 H       
  37 H37            2.4473    -3.1064     0.2340 H       
  38 H38           -1.0689    -3.6498     0.3847 H       
  39 H39            2.6985    -5.5671    -0.2274 H       
  40 H40           -0.6227    -8.9192     0.7277 H       
  41 H41           -2.1117    -7.9472     0.7910 H       
  42 H42           -2.0388    -9.5143    -1.1912 H       
  43 H43           -2.1647    -7.7999    -1.6676 H       
  44 H44           -0.3881    -9.0206    -2.9963 H       
  45 H45            0.3263    -7.7215    -1.9852 H       
  46 H46            0.5752    -9.3690     0.9204 H       
  47 H47            2.0301   -10.1631     0.2623 H       
  48 H48            2.4573    -7.9924    -1.0269 H       
  49 H49            2.7047    -7.9280     0.7240 H       
  50 H50            4.4996     3.5488    -0.0005 H       
@<TRIPOS>BOND
   1    1    2 1
   2    1    9 ar
   3    1   10 ar
   4    2    3 1
   5    2    6 1
   6    3    4 2
   7    4    5 1
   8    4    8 1
   9    5    6 2
  10    6    7 1
  11    7   35 1
  12    7   36 1
  13    8   14 1
  14    8   37 1
  15    9   13 ar
  16    9   28 1
  17   10   11 ar
  18   11   12 ar
  19   11   29 1
  20   12   13 ar
  21   13   26 1
  22   14   15 ar
  23   14   19 ar
  24   15   16 ar
  25   15   38 1
  26   16   17 ar
  27   17   18 ar
  28   17   20 1
  29   18   19 ar
  30   18   25 1
  31   19   39 1
  32   20   21 1
  33   20   40 1
  34   20   41 1
  35   21   22 1
  36   21   42 1
  37   21   43 1
  38   22   23 1
  39   22   44 1
  40   22   45 1
  41   23   24 1
  42   23   30 2
  43   24   25 1
  44   24   46 1
  45   24   47 1
  46   25   48 1
  47   25   49 1
  48   26   27 2
  49   26   31 1
  50   27   28 1
  51   27   50 1
  52   31   32 1
  53   31   33 1
  54   31   34 1

#	End of record

