#	Name: ASD01883508
#	Creating user name:	WinNT
#	Creation time:	15. 06. 2019 19:46

#	Modifying user name:	WinNT
#	Modification time:	15. 06. 2019 19:46

#	Program:	/corina/corina34_cracker 3.40 0067  02.08.2006

@<TRIPOS>MOLECULE
ASD01883508
  52   55    0    0    0
SMALL
NO_CHARGES


@<TRIPOS>ATOM
   1 N1            -0.0162     1.3417     0.0094 N.am    
   2 C2             0.0021    -0.0041     0.0020 C.2     
   3 C3            -1.2162    -0.7274     0.0098 C.2     
   4 C4            -2.4260    -0.0113     0.0252 C.2     
   5 C5            -2.3786     1.3965     0.0323 C.2     
   6 C6            -1.1850     2.0323     0.0299 C.2     
   7 O7             1.0657    -0.6000    -0.0117 O.2     
   8 C8            -1.2152    -2.1594     0.0016 C.1     
   9 N9            -1.2145    -3.2953    -0.0049 N.1     
  10 C10            1.2512     2.0764     0.0013 C.3     
  11 C11            1.6787     2.3400    -1.4440 C.3     
  12 C12            3.0023     3.1073    -1.4525 C.3     
  13 C13            3.4928     3.2620    -2.8935 C.3     
  14 C14            2.7937     4.4908    -0.8334 C.3     
  15 C15           -3.7221    -0.7217     0.0332 C.ar    
  16 C16           -4.0792    -1.5143     1.1323 C.ar    
  17 C17           -5.2718    -2.1760     1.1545 C.ar    
  18 C18           -6.1524    -2.0708     0.0808 C.ar    
  19 C19           -5.8055    -1.2767    -1.0301 C.ar    
  20 C20           -4.5894    -0.5983    -1.0482 C.ar    
  21 N21           -7.3941    -2.6072    -0.1771 N.pl3   
  22 C22           -7.8400    -2.1834    -1.4017 C.2     
  23 C23           -6.9280    -1.3780    -1.9676 C.2     
  24 C24           -8.0965    -3.4599     0.6837 C.ar    
  25 C25           -9.4221    -3.1922     0.9992 C.ar    
  26 C26          -10.1122    -4.0352     1.8480 C.ar    
  27 C27           -9.4844    -5.1446     2.3840 C.ar    
  28 C28           -8.1643    -5.4137     2.0721 C.ar    
  29 C29           -7.4706    -4.5779     1.2190 C.ar    
  30 H30           -3.2950     1.9679     0.0441 H       
  31 H31           -1.1611     3.1121     0.0358 H       
  32 H32            1.1242     3.0258     0.5214 H       
  33 H33            2.0168     1.4860     0.5046 H       
  34 H34            1.8057     1.3906    -1.9642 H       
  35 H35            0.9131     2.9304    -1.9474 H       
  36 H36            3.7444     2.5581    -0.8731 H       
  37 H37            2.7507     3.8112    -3.4729 H       
  38 H38            4.4358     3.8087    -2.8995 H       
  39 H39            3.6414     2.2764    -3.3345 H       
  40 H40            2.4443     4.3806     0.1931 H       
  41 H41            3.7367     5.0375    -0.8395 H       
  42 H42            2.0516     5.0400    -1.4129 H       
  43 H43           -3.4032    -1.6024     1.9699 H       
  44 H44           -5.5339    -2.7841     2.0078 H       
  45 H45           -4.3184     0.0118    -1.8972 H       
  46 H46           -8.7856    -2.4574    -1.8458 H       
  47 H47           -7.0063    -0.8955    -2.9307 H       
  48 H48           -9.9128    -2.3255     0.5815 H       
  49 H49          -11.1432    -3.8276     2.0938 H       
  50 H50          -10.0261    -5.8022     3.0478 H       
  51 H51           -7.6766    -6.2808     2.4926 H       
  52 H52           -6.4396    -4.7886     0.9759 H       
@<TRIPOS>BOND
   1    1    2 am
   2    1   10 1
   3    1    6 1
   4    2    3 1
   5    2    7 2
   6    3    4 2
   7    3    8 1
   8    4    5 1
   9    4   15 1
  10    5    6 2
  11    5   30 1
  12    6   31 1
  13    8    9 3
  14   10   11 1
  15   10   32 1
  16   10   33 1
  17   11   12 1
  18   11   34 1
  19   11   35 1
  20   12   13 1
  21   12   14 1
  22   12   36 1
  23   13   37 1
  24   13   38 1
  25   13   39 1
  26   14   40 1
  27   14   41 1
  28   14   42 1
  29   15   16 ar
  30   15   20 ar
  31   16   17 ar
  32   16   43 1
  33   17   18 ar
  34   17   44 1
  35   18   19 ar
  36   18   21 1
  37   19   20 ar
  38   19   23 1
  39   20   45 1
  40   21   22 1
  41   21   24 1
  42   22   23 2
  43   22   46 1
  44   23   47 1
  45   24   25 ar
  46   24   29 ar
  47   25   26 ar
  48   25   48 1
  49   26   27 ar
  50   26   49 1
  51   27   28 ar
  52   27   50 1
  53   28   29 ar
  54   28   51 1
  55   29   52 1

#	End of record

