#	Name: ASD01914097
#	Creating user name:	WinNT
#	Creation time:	15. 06. 2019 20:02

#	Modifying user name:	WinNT
#	Modification time:	15. 06. 2019 20:02

#	Program:	/corina/corina34_cracker 3.40 0067  02.08.2006

@<TRIPOS>MOLECULE
ASD01914097
  46   49    0    0    0
SMALL
NO_CHARGES


@<TRIPOS>ATOM
   1 C1            -0.0220     1.3721    -0.2005 C.ar    
   2 C2            -0.0008    -0.0073    -0.1109 C.ar    
   3 C3             2.3949     0.0229    -0.2121 C.ar    
   4 C4             2.3734     1.4065    -0.3022 C.ar    
   5 O5             3.5807    -0.6409    -0.2185 O.3     
   6 C6             1.2040    -0.6830    -0.1165 C.ar    
   7 C7             1.1644     2.0799    -0.2959 C.ar    
   8 F8             1.1416     3.4278    -0.3837 F       
   9 C9             3.5271    -2.0657    -0.1224 C.3     
  10 C10            4.9268    -2.6237    -0.1449 C.ar    
  11 N11            5.1066    -3.9283    -0.0666 N.ar    
  12 C12            6.3082    -4.4670    -0.0820 C.ar    
  13 C13            7.4446    -3.6638    -0.1825 C.ar    
  14 C14            7.2860    -2.2752    -0.2673 C.ar    
  15 C15            6.0021    -1.7598    -0.2530 C.ar    
  16 C16            8.7935    -4.2687    -0.1988 C.2     
  17 N17            8.9331    -5.6066    -0.1162 N.am    
  18 O18            9.7766    -3.5593    -0.2867 O.2     
  19 C19           10.2698    -6.2060    -0.1323 C.3     
  20 C20           10.1995    -7.6664    -0.6341 C.3     
  21 C21           10.7285    -8.5192     0.5593 C.3     
  22 C22            9.6072    -8.4187     1.6381 C.3     
  23 C23            9.6775    -6.9583     2.1400 C.3     
  24 C24           10.8346    -6.3140     1.3171 C.3     
  25 C25           11.7991    -7.5424     1.1618 C.3     
  26 H26           -0.9652     1.8981    -0.2004 H       
  27 H27           -0.9272    -0.5573    -0.0362 H       
  28 H28            3.2990     1.9579    -0.3770 H       
  29 H29            1.2192    -1.7606    -0.0462 H       
  30 H30            3.0380    -2.3488     0.8096 H       
  31 H31            2.9629    -2.4657    -0.9649 H       
  32 H32            6.4149    -5.5397    -0.0159 H       
  33 H33            8.1436    -1.6235    -0.3461 H       
  34 H34            5.8413    -0.6937    -0.3166 H       
  35 H35            8.1486    -6.1727    -0.0460 H       
  36 H36           10.9405    -5.6201    -0.7607 H       
  37 H37            9.1704    -7.9384    -0.8689 H       
  38 H38           10.8373    -7.7990    -1.5081 H       
  39 H39           11.0640    -9.5267     0.3132 H       
  40 H40            8.6328    -8.6212     1.1935 H       
  41 H41            9.8039    -9.1116     2.4563 H       
  42 H42            8.7377    -6.4429     1.9421 H       
  43 H43            9.9087    -6.9332     3.2049 H       
  44 H44           11.2626    -5.4010     1.7309 H       
  45 H45           12.1752    -7.8911     2.1236 H       
  46 H46           12.6087    -7.3404     0.4605 H       
@<TRIPOS>BOND
   1    1    2 ar
   2    1    7 ar
   3    1   26 1
   4    2    6 ar
   5    2   27 1
   6    3    4 ar
   7    3    5 1
   8    3    6 ar
   9    4    7 ar
  10    4   28 1
  11    5    9 1
  12    6   29 1
  13    7    8 1
  14    9   10 1
  15    9   30 1
  16    9   31 1
  17   10   11 ar
  18   10   15 ar
  19   11   12 ar
  20   12   13 ar
  21   12   32 1
  22   13   14 ar
  23   13   16 1
  24   14   15 ar
  25   14   33 1
  26   15   34 1
  27   16   17 am
  28   16   18 2
  29   17   19 1
  30   17   35 1
  31   19   20 1
  32   19   24 1
  33   19   36 1
  34   20   21 1
  35   20   37 1
  36   20   38 1
  37   21   22 1
  38   21   25 1
  39   21   39 1
  40   22   23 1
  41   22   40 1
  42   22   41 1
  43   23   24 1
  44   23   42 1
  45   23   43 1
  46   24   25 1
  47   24   44 1
  48   25   45 1
  49   25   46 1

#	End of record

