#	Name: ASD09116138
#	Creating user name:	WinNT
#	Creation time:	15. 06. 2019 21:20

#	Modifying user name:	WinNT
#	Modification time:	15. 06. 2019 21:20

#	Program:	/corina/corina34_cracker 3.40 0067  02.08.2006

@<TRIPOS>MOLECULE
ASD09116138
  80   87    0    0    0
SMALL
NO_CHARGES


@<TRIPOS>ATOM
   1 N1            -0.0265     1.4807     0.1050 N.2     
   2 C2            -0.0139     0.0096     0.1906 C.3     
   3 C3             1.2223     1.8593     0.0811 C.2     
   4 N4             2.0841     0.8236     0.1400 N.2     
   5 C5             1.4647    -0.3259     0.2079 C.2     
   6 N6             1.6189     3.1796     0.0037 N.pl3   
   7 C7             2.9746     3.5091     0.0981 C.ar    
   8 C8             3.4701     4.6170    -0.5784 C.ar    
   9 C9             3.8269     2.7326     0.8729 C.ar    
  10 C10            5.1660     3.0596     0.9653 C.ar    
  11 C11            5.6521     4.1620     0.2830 C.ar    
  12 C12            4.8123     4.9335    -0.4782 C.ar    
  13 N13            2.0279    -1.5619     0.2789 N.pl3   
  14 C14           -0.6793    -0.4547     1.4606 C.ar    
  15 C15           -1.3059     0.4706     2.2700 C.ar    
  16 N16           -0.6534    -1.7441     1.7712 N.ar    
  17 C17           -1.2176    -2.1780     2.8594 C.ar    
  18 C18           -1.8704    -1.3100     3.7426 C.ar    
  19 C19           -1.9267     0.0442     3.4543 C.ar    
  20 C20           -1.2563    -3.6232     3.3212 C.3     
  21 C21           -0.6304    -3.6393     4.7310 C.3     
  22 C22           -1.3469    -2.6177     5.6168 C.3     
  23 N23           -2.4196    -1.9407     4.8619 N.3     
  24 C24           -3.4062    -2.9461     4.4207 C.3     
  25 C25           -2.7472    -3.9762     3.5007 C.3     
  26 C26           -2.6071     1.0012     4.3600 C.ar    
  27 C27           -1.9555     2.1647     4.7655 C.ar    
  28 C28           -3.9029     0.7435     4.8043 C.ar    
  29 C29           -4.5313     1.6379     5.6466 C.ar    
  30 C30           -3.8780     2.7886     6.0497 C.ar    
  31 C31           -2.5938     3.0520     5.6081 C.ar    
  32 C32            7.1218     4.5139     0.3877 C.3     
  33 C33            7.2561     5.7931     1.2174 C.3     
  34 C34            7.0945     7.0233     0.3466 C.3     
  35 C35            5.6966     7.2215    -0.2053 C.3     
  36 C36            5.3514     6.1378    -1.2222 C.3     
  37 N37            7.4544     8.2062     1.1398 N.3     
  38 C38            8.8499     8.1235     1.6086 C.3     
  39 C39            9.5790     9.3843     1.0985 C.3     
  40 C40            8.4184    10.3843     0.8540 C.3     
  41 C41            7.2968     9.4439     0.3467 C.3     
  42 H42           -0.5005    -0.4303    -0.6799 H       
  43 H43            0.9571     3.8786    -0.1162 H       
  44 H44            2.8112     5.2268    -1.1788 H       
  45 H45            3.4427     1.8737     1.4031 H       
  46 H46            5.8307     2.4580     1.5675 H       
  47 H47            2.9934    -1.6554     0.2825 H       
  48 H48            1.4641    -2.3498     0.3260 H       
  49 H49           -1.3182     1.5148     1.9945 H       
  50 H50           -0.7415    -4.2924     2.6318 H       
  51 H51           -0.7362    -4.6339     5.1644 H       
  52 H52            0.4268    -3.3830     4.6624 H       
  53 H53           -1.7796    -3.1283     6.4771 H       
  54 H54           -0.6279    -1.8756     5.9639 H       
  55 H55           -3.8171    -3.4539     5.2932 H       
  56 H56           -4.2124    -2.4472     3.8828 H       
  57 H57           -3.2426    -3.9662     2.5298 H       
  58 H58           -2.8351    -4.9682     3.9437 H       
  59 H59           -0.9528     2.3713     4.4213 H       
  60 H60           -4.4142    -0.1543     4.4896 H       
  61 H61           -5.5353     1.4393     5.9915 H       
  62 H62           -4.3738     3.4860     6.7087 H       
  63 H63           -2.0883     3.9518     5.9263 H       
  64 H64            7.6589     3.7016     0.8774 H       
  65 H65            7.5308     4.6791    -0.6090 H       
  66 H66            6.4894     5.7995     1.9923 H       
  67 H67            8.2393     5.8135     1.6875 H       
  68 H68            7.7891     6.9482    -0.4901 H       
  69 H69            4.9791     7.1828     0.6144 H       
  70 H70            5.6367     8.1975    -0.6869 H       
  71 H71            6.2475     5.8546    -1.7743 H       
  72 H72            4.5948     6.5109    -1.9125 H       
  73 H73            8.8741     8.0964     2.6980 H       
  74 H74            9.3251     7.2306     1.2026 H       
  75 H75           10.2637     9.7663     1.8557 H       
  76 H76           10.1086     9.1739     0.1694 H       
  77 H77            8.1254    10.8768     1.7812 H       
  78 H78            8.6878    11.1167     0.0929 H       
  79 H79            7.4287     9.2339    -0.7147 H       
  80 H80            6.3181     9.8885     0.5276 H       
@<TRIPOS>BOND
   1    1    2 1
   2    1    3 2
   3    2   14 1
   4    2    5 1
   5    2   42 1
   6    3    4 1
   7    3    6 1
   8    4    5 2
   9    5   13 1
  10    6    7 1
  11    6   43 1
  12    7    8 ar
  13    7    9 ar
  14    8   12 ar
  15    8   44 1
  16    9   10 ar
  17    9   45 1
  18   10   11 ar
  19   10   46 1
  20   11   12 ar
  21   11   32 1
  22   12   36 1
  23   13   47 1
  24   13   48 1
  25   14   15 ar
  26   14   16 ar
  27   15   19 ar
  28   15   49 1
  29   16   17 ar
  30   17   18 ar
  31   17   20 1
  32   18   19 ar
  33   18   23 1
  34   19   26 1
  35   20   21 1
  36   20   25 1
  37   20   50 1
  38   21   22 1
  39   21   51 1
  40   21   52 1
  41   22   23 1
  42   22   53 1
  43   22   54 1
  44   23   24 1
  45   24   25 1
  46   24   55 1
  47   24   56 1
  48   25   57 1
  49   25   58 1
  50   26   27 ar
  51   26   28 ar
  52   27   31 ar
  53   27   59 1
  54   28   29 ar
  55   28   60 1
  56   29   30 ar
  57   29   61 1
  58   30   31 ar
  59   30   62 1
  60   31   63 1
  61   32   33 1
  62   32   64 1
  63   32   65 1
  64   33   34 1
  65   33   66 1
  66   33   67 1
  67   34   35 1
  68   34   37 1
  69   34   68 1
  70   35   36 1
  71   35   69 1
  72   35   70 1
  73   36   71 1
  74   36   72 1
  75   37   38 1
  76   37   41 1
  77   38   39 1
  78   38   73 1
  79   38   74 1
  80   39   40 1
  81   39   75 1
  82   39   76 1
  83   40   41 1
  84   40   77 1
  85   40   78 1
  86   41   79 1
  87   41   80 1

#	End of record

