#	Name: ASD03091030
#	Creating user name:	WinNT
#	Creation time:	15. 06. 2019 20:29

#	Modifying user name:	WinNT
#	Modification time:	15. 06. 2019 20:29

#	Program:	/corina/corina34_cracker 3.40 0067  02.08.2006

@<TRIPOS>MOLECULE
ASD03091030
  49   53    0    0    0
SMALL
NO_CHARGES


@<TRIPOS>ATOM
   1 N1             0.0208     1.3796     0.0752 N.am    
   2 C2             0.0185    -0.0049     0.0306 C.2     
   3 N3             0.9392    -0.6993    -0.5574 N.2     
   4 C4             2.0573    -0.2347    -1.1748 C.ar    
   5 C5             2.4821     1.0883    -0.9992 C.ar    
   6 S6             1.5192     2.1197     0.0686 S.o2    
   7 O7             1.3624     3.3685    -0.5912 O.2     
   8 C8             2.8070    -1.0771    -2.0039 C.ar    
   9 C9             3.9356    -0.5992    -2.6324 C.ar    
  10 C10            4.3408     0.7185    -2.4526 C.ar    
  11 C11            3.6029     1.5641    -1.6279 C.ar    
  12 N12            5.4864     1.1933    -3.0975 N.3     
  13 C13            6.6687     1.0640    -2.2342 C.3     
  14 C14            5.3091     2.5856    -3.5272 C.3     
  15 C15            6.4538     3.0720    -4.4024 C.3     
  16 N16            7.7217     3.0534    -3.6571 N.3     
  17 C17            7.6430     3.3868    -2.2510 C.3     
  18 C18            6.8608     2.3535    -1.4571 C.3     
  19 C19            7.8848     0.6641    -3.0561 C.3     
  20 C20            8.4332     1.7917    -3.9070 C.3     
  21 C21           -1.0914    -0.7259     0.6882 C.ar    
  22 O22            2.0569     1.9800     1.3765 O.2     
  23 C23           -1.1312    -2.1212     0.6664 C.ar    
  24 C24           -2.1011    -0.0149     1.3387 C.ar    
  25 C25           -3.1348    -0.6936     1.9509 C.ar    
  26 C26           -3.1724    -2.0760     1.9213 C.ar    
  27 C27           -2.1709    -2.7884     1.2826 C.ar    
  28 Cl28          -2.2273    -4.5231     1.2504 Cl      
  29 H29           -0.8025     1.8917     0.1045 H       
  30 H30            2.5006    -2.1023    -2.1506 H       
  31 H31            4.5110    -1.2539    -3.2701 H       
  32 H32            3.9122     2.5889    -1.4848 H       
  33 H33            6.4732     0.2720    -1.5114 H       
  34 H34            4.3775     2.6663    -4.0873 H       
  35 H35            5.2446     3.2219    -2.6446 H       
  36 H36            6.5401     2.4232    -5.2740 H       
  37 H37            6.2460     4.0898    -4.7324 H       
  38 H38            8.6529     3.4532    -1.8464 H       
  39 H39            7.1569     4.3566    -2.1444 H       
  40 H40            5.8831     2.7651    -1.2063 H       
  41 H41            7.3984     2.1343    -0.5345 H       
  42 H42            8.6683     0.3247    -2.3786 H       
  43 H43            7.6085    -0.1638    -3.7091 H       
  44 H44            8.3289     1.5267    -4.9592 H       
  45 H45            9.4903     1.9281    -3.6788 H       
  46 H46           -0.3509    -2.6774     0.1683 H       
  47 H47           -2.0732     1.0645     1.3632 H       
  48 H48           -3.9162    -0.1441     2.4547 H       
  49 H49           -3.9837    -2.6022     2.4020 H       
@<TRIPOS>BOND
   1    1    2 1
   2    1    6 am
   3    1   29 1
   4    2    3 2
   5    2   21 1
   6    3    4 1
   7    4    5 ar
   8    4    8 ar
   9    5    6 1
  10    5   11 ar
  11    6    7 2
  12    6   22 2
  13    8    9 ar
  14    8   30 1
  15    9   10 ar
  16    9   31 1
  17   10   11 ar
  18   10   12 1
  19   11   32 1
  20   12   14 1
  21   12   13 1
  22   13   19 1
  23   13   18 1
  24   13   33 1
  25   14   15 1
  26   14   34 1
  27   14   35 1
  28   15   16 1
  29   15   36 1
  30   15   37 1
  31   16   17 1
  32   16   20 1
  33   17   18 1
  34   17   38 1
  35   17   39 1
  36   18   40 1
  37   18   41 1
  38   19   20 1
  39   19   42 1
  40   19   43 1
  41   20   44 1
  42   20   45 1
  43   21   23 ar
  44   21   24 ar
  45   23   27 ar
  46   23   46 1
  47   24   25 ar
  48   24   47 1
  49   25   26 ar
  50   25   48 1
  51   26   27 ar
  52   26   49 1
  53   27   28 1

#	End of record

