#	Name: ASD03092008
#	Creating user name:	WinNT
#	Creation time:	15. 06. 2019 20:31

#	Modifying user name:	WinNT
#	Modification time:	15. 06. 2019 20:31

#	Program:	/corina/corina34_cracker 3.40 0067  02.08.2006

@<TRIPOS>MOLECULE
ASD03092008
  51   53    0    0    0
SMALL
NO_CHARGES


@<TRIPOS>ATOM
   1 C1             0.1821     1.3439     0.0833 C.ar    
   2 N2             0.1918     0.1555    -0.5017 N.ar    
   3 C3            -0.9181    -0.4296    -0.9134 C.ar    
   4 C4            -2.1433     0.1782    -0.7496 C.ar    
   5 C5            -2.2049     1.4367    -0.1358 C.ar    
   6 C6            -1.0116     2.0223     0.2918 C.ar    
   7 C7            -3.5005     2.1238     0.0593 C.2     
   8 C8            -3.6856     3.4657     0.2331 C.2     
   9 C9            -5.0597     3.6928     0.3811 C.2     
  10 N10           -5.6822     2.5395     0.3008 N.2     
  11 N11           -4.7293     1.5343     0.0926 N.pl3   
  12 C12           -5.0035     0.1026    -0.0532 C.3     
  13 N13           -5.6667     4.9386     0.5817 N.pl3   
  14 C14           -7.0596     5.0414     0.6033 C.ar    
  15 C15           -7.6701     6.0735     1.3044 C.ar    
  16 C16           -9.0496     6.1737     1.3240 C.ar    
  17 C17           -9.8220     5.2457     0.6457 C.ar    
  18 C18           -9.2156     4.2157    -0.0535 C.ar    
  19 C19           -7.8362     4.1151    -0.0811 C.ar    
  20 F20           -9.6439     7.1773     2.0058 F       
  21 C21           -5.3627    -0.2023    -1.5088 C.3     
  22 C22           -5.5496    -1.7108    -1.6829 C.3     
  23 C23           -5.7857    -2.0283    -3.1608 C.3     
  24 N24            1.3796     1.9159     0.4982 N.pl3   
  25 C25            1.3780     3.2299     1.1460 C.3     
  26 C26            2.8129     3.6256     1.5003 C.3     
  27 O27           -6.5760     0.4707    -1.8510 O.3     
  28 F28           -9.9716     3.3115    -0.7140 F       
  29 H29           -0.8644    -1.3992    -1.3860 H       
  30 H30           -3.0451    -0.3087    -1.0901 H       
  31 H31           -1.0161     2.9908     0.7695 H       
  32 H32           -2.9106     4.2176     0.2529 H       
  33 H33           -4.1186    -0.4675     0.2297 H       
  34 H34           -5.8365    -0.1755     0.5925 H       
  35 H35           -5.1199     5.7301     0.7056 H       
  36 H36           -7.0681     6.7970     1.8341 H       
  37 H37          -10.8989     5.3253     0.6624 H       
  38 H38           -7.3637     3.3116    -0.6265 H       
  39 H39           -4.5600     0.1420    -2.1609 H       
  40 H40           -4.6554    -2.2299    -1.3380 H       
  41 H41           -6.4089    -2.0402    -1.0987 H       
  42 H42           -6.6799    -1.5092    -3.5057 H       
  43 H43           -4.9264    -1.6989    -3.7449 H       
  44 H44           -5.9188    -3.1030    -3.2848 H       
  45 H45            2.2160     1.4449     0.3587 H       
  46 H46            0.9545     3.9695     0.4665 H       
  47 H47            0.7782     3.1861     2.0550 H       
  48 H48            3.2365     2.8860     2.1797 H       
  49 H49            3.4127     3.6694     0.5912 H       
  50 H50            2.8118     4.6032     1.9822 H       
  51 H51           -7.3349     0.2129    -1.3099 H       
@<TRIPOS>BOND
   1    1    2 ar
   2    1   24 1
   3    1    6 ar
   4    2    3 ar
   5    3    4 ar
   6    3   29 1
   7    4    5 ar
   8    4   30 1
   9    5    6 ar
  10    5    7 1
  11    6   31 1
  12    7    8 2
  13    7   11 1
  14    8    9 1
  15    8   32 1
  16    9   10 2
  17    9   13 1
  18   10   11 1
  19   11   12 1
  20   12   21 1
  21   12   33 1
  22   12   34 1
  23   13   14 1
  24   13   35 1
  25   14   15 ar
  26   14   19 ar
  27   15   16 ar
  28   15   36 1
  29   16   17 ar
  30   16   20 1
  31   17   18 ar
  32   17   37 1
  33   18   19 ar
  34   18   28 1
  35   19   38 1
  36   21   22 1
  37   21   27 1
  38   21   39 1
  39   22   23 1
  40   22   40 1
  41   22   41 1
  42   23   42 1
  43   23   43 1
  44   23   44 1
  45   24   25 1
  46   24   45 1
  47   25   26 1
  48   25   46 1
  49   25   47 1
  50   26   48 1
  51   26   49 1
  52   26   50 1
  53   27   51 1

#	End of record

