#	Name: ASD01911532
#	Creating user name:	WinNT
#	Creation time:	15. 06. 2019 19:57

#	Modifying user name:	WinNT
#	Modification time:	15. 06. 2019 19:57

#	Program:	/corina/corina34_cracker 3.40 0067  02.08.2006

@<TRIPOS>MOLECULE
ASD01911532
  38   40    0    0    0
SMALL
NO_CHARGES


@<TRIPOS>ATOM
   1 N1            -0.0069     1.4097    -0.0031 N.2     
   2 N2            -0.0072     0.0097    -0.0452 N.pl3   
   3 C3             1.2424     1.8243     0.0384 C.2     
   4 C4             2.0821     0.6975     0.0240 C.2     
   5 C5             1.2898    -0.4116    -0.0278 C.2     
   6 C6             1.7533    -1.8167    -0.0589 C.ar    
   7 C7             1.6872     3.2387     0.0909 C.ar    
   8 C8            -1.1919    -0.8504    -0.0986 C.3     
   9 C9            -1.6289    -1.0151    -1.5314 C.2     
  10 O10           -2.7014    -1.7675    -1.8237 O.3     
  11 O11           -1.0139    -0.4699    -2.4171 O.2     
  12 N12            2.9834     3.5184     0.1290 N.ar    
  13 C13            0.7395     4.2599     0.0939 C.ar    
  14 C14            1.1664     5.5748     0.1431 C.ar    
  15 C15            2.5348     5.8269     0.1878 C.ar    
  16 C16            3.4219     4.7595     0.1761 C.ar    
  17 C17            0.9279    -2.8152    -0.5760 C.ar    
  18 O18            2.9970     7.1040     0.2364 O.3     
  19 C19            1.3660    -4.1233    -0.6027 C.ar    
  20 C20            2.6210    -4.4456    -0.1179 C.ar    
  21 C21            3.4443    -3.4598     0.3962 C.ar    
  22 C22            3.0198    -2.1472     0.4235 C.ar    
  23 C23            4.4144     7.2798     0.2803 C.3     
  24 F24            4.9272     6.6509     1.4199 F       
  25 F25            4.9900     6.7149    -0.8629 F       
  26 H26            3.1617     0.7078     0.0494 H       
  27 H27           -0.9513    -1.8267     0.3224 H       
  28 H28           -1.9977    -0.3951     0.4770 H       
  29 H29           -2.9432    -1.8435    -2.7569 H       
  30 H30           -0.3147     4.0280     0.0581 H       
  31 H31            0.4546     6.3870     0.1463 H       
  32 H32            4.4847     4.9487     0.2106 H       
  33 H33           -0.0522    -2.5649    -0.9544 H       
  34 H34            0.7277    -4.8974    -1.0025 H       
  35 H35            2.9592    -5.4710    -0.1406 H       
  36 H36            4.4230    -3.7176     0.7732 H       
  37 H37            3.6634    -1.3786     0.8252 H       
  38 H38            4.6477     8.3439     0.3166 H       
@<TRIPOS>BOND
   1    1    2 1
   2    1    3 2
   3    2    8 1
   4    2    5 1
   5    3    4 1
   6    3    7 1
   7    4    5 2
   8    4   26 1
   9    5    6 1
  10    6   17 ar
  11    6   22 ar
  12    7   12 ar
  13    7   13 ar
  14    8    9 1
  15    8   27 1
  16    8   28 1
  17    9   10 1
  18    9   11 2
  19   10   29 1
  20   12   16 ar
  21   13   14 ar
  22   13   30 1
  23   14   15 ar
  24   14   31 1
  25   15   16 ar
  26   15   18 1
  27   16   32 1
  28   17   19 ar
  29   17   33 1
  30   18   23 1
  31   19   20 ar
  32   19   34 1
  33   20   21 ar
  34   20   35 1
  35   21   22 ar
  36   21   36 1
  37   22   37 1
  38   23   24 1
  39   23   25 1
  40   23   38 1

#	End of record

