#	Name: ASD01410663
#	Creating user name:	WinNT
#	Creation time:	15. 06. 2019 19:18

#	Modifying user name:	WinNT
#	Modification time:	15. 06. 2019 19:18

#	Program:	/corina/corina34_cracker 3.40 0067  02.08.2006

@<TRIPOS>MOLECULE
ASD01410663
  76   79    0    0    0
SMALL
NO_CHARGES


@<TRIPOS>ATOM
   1 C1             3.8200     5.7654    -3.5260 C.ar    
   2 C2             4.3422     5.0414    -4.5887 C.ar    
   3 C3             5.1223     3.9313    -4.3315 C.ar    
   4 N4             5.3747     3.5545    -3.0926 N.ar    
   5 C5             4.8951     4.2186    -2.0537 C.ar    
   6 C6             4.1029     5.3446    -2.2381 C.ar    
   7 O7             5.1793     3.7956    -0.7965 O.3     
   8 C8             5.8705     2.6328    -0.6549 C.ar    
   9 C9             7.2580     2.6312    -0.7736 C.ar    
  10 C10            7.9694     1.4542    -0.6313 C.ar    
  11 C11            7.3035     0.2659    -0.3696 C.ar    
  12 C12            5.9049     0.2619    -0.2491 C.ar    
  13 C13            5.1946     1.4581    -0.3884 C.ar    
  14 F14            7.9122     3.7853    -1.0293 F       
  15 N15            8.0209    -0.9208    -0.2271 N.am    
  16 C16            8.4790    -1.2899     0.9855 C.2     
  17 C17            8.2770    -1.7667    -1.3955 C.3     
  18 O18            9.1764    -2.2760     1.0959 O.2     
  19 C19            8.1245    -0.4774     2.2042 C.3     
  20 C20            9.2640    -0.5607     3.2218 C.3     
  21 C21            8.9041     0.2642     4.4591 C.3     
  22 C22            7.6209    -0.2871     5.0840 C.3     
  23 C23            6.4814    -0.2038     4.0664 C.3     
  24 C24            6.8413    -1.0287     2.8291 C.3     
  25 C25            7.2610     0.5378     6.3214 C.3     
  26 C26            7.7667    -3.1828    -1.1215 C.3     
  27 C27            9.7810    -1.8114    -1.6730 C.3     
  28 C28            4.0604     5.4618    -6.0082 C.3     
  29 O29           10.2250    -0.5221    -2.1005 O.3     
  30 C30            5.1273     6.4211    -6.4692 C.ar    
  31 C31            4.9827     7.7872    -6.2812 C.ar    
  32 C32           11.6232    -0.4545    -2.3874 C.3     
  33 C33            6.2795     5.9582    -7.0861 C.ar    
  34 C34            7.2363     6.8678    -7.4951 C.ar    
  35 N35            7.0630     8.1610    -7.3040 N.ar    
  36 C36            5.9823     8.6365    -6.7167 C.ar    
  37 C37            3.5592     6.0983    -1.0517 C.3     
  38 F38            2.7981     7.1840    -1.4980 F       
  39 F39            2.7538     5.2469    -0.2876 F       
  40 F40            4.6208     6.5635    -0.2683 F       
  41 C41            5.1899    -0.9951     0.0288 C.2     
  42 O42            5.8149    -2.0096     0.2679 O.2     
  43 O43            3.8425    -1.0205     0.0179 O.3     
  44 H44            3.2106     6.6399    -3.7000 H       
  45 H45            5.5308     3.3642    -5.1549 H       
  46 H46            9.0453     1.4600    -0.7245 H       
  47 H47            4.1185     1.4620    -0.2968 H       
  48 H48            7.7597    -1.3554    -2.2622 H       
  49 H49            7.9704     0.5623     1.9155 H       
  50 H50            9.4180    -1.6004     3.5105 H       
  51 H51           10.1781    -0.1680     2.7766 H       
  52 H52            9.7159     0.2048     5.1841 H       
  53 H53            8.7500     1.3039     4.1704 H       
  54 H54            7.7750    -1.3268     5.3727 H       
  55 H55            5.5673    -0.5966     4.5116 H       
  56 H56            6.3274     0.8359     3.7777 H       
  57 H57            6.0295    -0.9694     2.1042 H       
  58 H58            6.9954    -2.0684     3.1178 H       
  59 H59            7.1069     1.5775     6.0327 H       
  60 H60            6.3469     0.1450     6.7666 H       
  61 H61            8.0728     0.4784     7.0463 H       
  62 H62            6.6768    -3.1794    -1.1047 H       
  63 H63            8.1158    -3.8531    -1.9070 H       
  64 H64            8.1439    -3.5249    -0.1578 H       
  65 H65           10.3101    -2.0946    -0.7631 H       
  66 H66            9.9846    -2.5433    -2.4546 H       
  67 H67            4.0582     4.5834    -6.6536 H       
  68 H68            3.0872     5.9504    -6.0561 H       
  69 H69            4.0999     8.1826    -5.8008 H       
  70 H70           11.8805     0.5559    -2.7050 H       
  71 H71           12.1906    -0.7097    -1.4924 H       
  72 H72           11.8651    -1.1583    -3.1838 H       
  73 H73            6.4275     4.9003    -7.2448 H       
  74 H74            8.1366     6.5153    -7.9764 H       
  75 H75            5.8753     9.7021    -6.5778 H       
  76 H76            3.4178    -1.8686     0.2061 H       
@<TRIPOS>BOND
   1    1    2 ar
   2    1    6 ar
   3    1   44 1
   4    2    3 ar
   5    2   28 1
   6    3    4 ar
   7    3   45 1
   8    4    5 ar
   9    5    6 ar
  10    5    7 1
  11    6   37 1
  12    7    8 1
  13    8    9 ar
  14    8   13 ar
  15    9   10 ar
  16    9   14 1
  17   10   11 ar
  18   10   46 1
  19   11   12 ar
  20   11   15 1
  21   12   13 ar
  22   12   41 1
  23   13   47 1
  24   15   16 am
  25   15   17 1
  26   16   18 2
  27   16   19 1
  28   17   26 1
  29   17   27 1
  30   17   48 1
  31   19   20 1
  32   19   24 1
  33   19   49 1
  34   20   21 1
  35   20   50 1
  36   20   51 1
  37   21   22 1
  38   21   52 1
  39   21   53 1
  40   22   23 1
  41   22   25 1
  42   22   54 1
  43   23   24 1
  44   23   55 1
  45   23   56 1
  46   24   57 1
  47   24   58 1
  48   25   59 1
  49   25   60 1
  50   25   61 1
  51   26   62 1
  52   26   63 1
  53   26   64 1
  54   27   29 1
  55   27   65 1
  56   27   66 1
  57   28   30 1
  58   28   67 1
  59   28   68 1
  60   29   32 1
  61   30   33 ar
  62   30   31 ar
  63   31   36 ar
  64   31   69 1
  65   32   70 1
  66   32   71 1
  67   32   72 1
  68   33   34 ar
  69   33   73 1
  70   34   35 ar
  71   34   74 1
  72   35   36 ar
  73   36   75 1
  74   37   38 1
  75   37   39 1
  76   37   40 1
  77   41   42 2
  78   41   43 1
  79   43   76 1

#	End of record

