#	Name: ASD02198041
#	Creating user name:	WinNT
#	Creation time:	15. 06. 2019 20:18

#	Modifying user name:	WinNT
#	Modification time:	15. 06. 2019 20:18

#	Program:	/corina/corina34_cracker 3.40 0067  02.08.2006

@<TRIPOS>MOLECULE
ASD02198041
  42   45    0    0    0
SMALL
NO_CHARGES


@<TRIPOS>ATOM
   1 C1             0.5322     1.3743    -0.6166 C.2     
   2 C2             0.4399     0.0009    -0.5329 C.2     
   3 C3            -0.7954    -0.6857    -0.3020 C.1     
   4 S4             2.1423     1.8596    -0.8976 S.3     
   5 C5             2.7114     0.1981    -0.9048 C.2     
   6 C6             1.6565    -0.6584    -0.6936 C.2     
   7 C7             4.0485    -0.1980    -1.0983 C.2     
   8 O8             4.3625    -1.3691    -0.9680 O.2     
   9 C9             5.0726     0.8066    -1.4598 C.ar    
  10 N10            1.7901    -2.0371    -0.6451 N.pl3   
  11 N11           -0.5329     2.2368    -0.4956 N.pl3   
  12 N12           -1.7753    -1.2304    -0.1188 N.1     
  13 C13           -0.3152     3.6169    -0.4716 C.ar    
  14 C14           -1.2291     4.4764    -1.0682 C.ar    
  15 C15           -1.0111     5.8398    -1.0422 C.ar    
  16 C16            0.1157     6.3498    -0.4236 C.ar    
  17 C17            1.0278     5.4971     0.1708 C.ar    
  18 C18            0.8128     4.1330     0.1539 C.ar    
  19 C19            6.3840     0.6274    -1.0534 C.ar    
  20 C20            7.3502     1.5839    -1.3997 C.ar    
  21 C21            6.9687     2.7184    -2.1600 C.ar    
  22 C22            5.6278     2.8711    -2.5581 C.ar    
  23 C23            4.7076     1.9329    -2.2184 C.ar    
  24 C24            8.6922     1.4379    -1.0046 C.ar    
  25 C25            9.6046     2.3844    -1.3562 C.ar    
  26 C26            9.2292     3.4995    -2.1031 C.ar    
  27 C27            7.9397     3.6738    -2.5034 C.ar    
  28 H28            2.6626    -2.4443    -0.7634 H       
  29 H29            1.0112    -2.5949    -0.4930 H       
  30 H30           -1.4350     1.8868    -0.4269 H       
  31 H31           -2.1090     4.0787    -1.5520 H       
  32 H32           -1.7212     6.5085    -1.5058 H       
  33 H33            0.2840     7.4164    -0.4050 H       
  34 H34            1.9071     5.8986     0.6525 H       
  35 H35            1.5255     3.4676     0.6184 H       
  36 H36            6.6607    -0.2412    -0.4744 H       
  37 H37            5.3314     3.7331    -3.1373 H       
  38 H38            3.6804     2.0573    -2.5277 H       
  39 H39            8.9969     0.5791    -0.4249 H       
  40 H40           10.6344     2.2700    -1.0516 H       
  41 H41            9.9726     4.2366    -2.3685 H       
  42 H42            7.6643     4.5430    -3.0821 H       
@<TRIPOS>BOND
   1    1    2 2
   2    1    4 1
   3    1   11 1
   4    2    3 1
   5    2    6 1
   6    3   12 3
   7    4    5 1
   8    5    6 2
   9    5    7 1
  10    6   10 1
  11    7    8 2
  12    7    9 1
  13    9   19 ar
  14    9   23 ar
  15   10   28 1
  16   10   29 1
  17   11   13 1
  18   11   30 1
  19   13   14 ar
  20   13   18 ar
  21   14   15 ar
  22   14   31 1
  23   15   16 ar
  24   15   32 1
  25   16   17 ar
  26   16   33 1
  27   17   18 ar
  28   17   34 1
  29   18   35 1
  30   19   20 ar
  31   19   36 1
  32   20   21 ar
  33   20   24 ar
  34   21   22 ar
  35   21   27 ar
  36   22   23 ar
  37   22   37 1
  38   23   38 1
  39   24   25 ar
  40   24   39 1
  41   25   26 ar
  42   25   40 1
  43   26   27 ar
  44   26   41 1
  45   27   42 1

#	End of record

