#	Name: ASD04910403
#	Creating user name:	WinNT
#	Creation time:	15. 06. 2019 20:55

#	Modifying user name:	WinNT
#	Modification time:	15. 06. 2019 20:55

#	Program:	/corina/corina34_cracker 3.40 0067  02.08.2006

@<TRIPOS>MOLECULE
ASD04910403
  65   68    0    0    0
SMALL
NO_CHARGES


@<TRIPOS>ATOM
   1 C1             0.9834     1.6432     0.9292 C.2     
   2 C2             0.8551     0.1475     0.7962 C.3     
   3 C3             2.2476    -0.4753     0.6785 C.3     
   4 O4             2.0764     2.1581     0.9298 O.2     
   5 O5            -0.1169     2.4038     1.0414 O.3     
   6 C6             3.2275    -2.6924     0.4309 C.2     
   7 C7             3.1017    -4.1597     0.3004 C.ar    
   8 C8             4.2435    -4.9530     0.1777 C.ar    
   9 C9             4.1192    -6.3216     0.0568 C.ar    
  10 C10            2.8660    -6.9081     0.0565 C.ar    
  11 C11            1.7301    -6.1275     0.1778 C.ar    
  12 C12            1.8408    -4.7583     0.3052 C.ar    
  13 O13            4.3271    -2.1744     0.4315 O.2     
  14 N14            2.1230    -1.9292     0.5492 N.am    
  15 C15            2.7377    -8.4037    -0.0770 C.3     
  16 N16            1.6811    -8.8849     0.8165 N.pl3   
  17 C17            3.2525    -8.9736     2.6530 C.ar    
  18 C18            1.9609    -9.1224     2.1659 C.ar    
  19 C19            0.9469    -9.5111     3.0390 C.ar    
  20 C20            1.2700    -9.7348     4.3658 C.ar    
  21 C21            2.5849    -9.5657     4.7805 C.ar    
  22 N22            3.5229    -9.1956     3.9241 N.ar    
  23 N23            2.9215    -9.7896     6.1205 N.pl3   
  24 N24            2.0424   -10.1834     7.1377 N.2     
  25 C25            2.7238   -10.2903     8.2496 C.2     
  26 C26            4.0589    -9.9690     7.9811 C.2     
  27 C27            4.1596    -9.6695     6.6653 C.2     
  28 C28            5.1871    -9.9629     8.9802 C.3     
  29 F29            4.6982   -10.3322    10.2379 F       
  30 F30            6.1716   -10.8716     8.5773 F       
  31 F31            5.7388    -8.6794     9.0527 F       
  32 C32            2.3838    -8.7582    -1.5226 C.3     
  33 C33            2.3698   -10.2794    -1.6859 C.3     
  34 C34            2.0160   -10.6339    -3.1316 C.3     
  35 C35            0.6340   -10.0718    -3.4709 C.3     
  36 C36            0.6480    -8.5506    -3.3076 C.3     
  37 C37            1.0019    -8.1961    -1.8619 C.3     
  38 H38            0.3508    -0.2535     1.6754 H       
  39 H39            0.2746    -0.0895    -0.0954 H       
  40 H40            2.7519    -0.0742    -0.2007 H       
  41 H41            2.8282    -0.2383     1.5700 H       
  42 H42            0.0157     3.3581     1.1243 H       
  43 H43            5.2222    -4.4963     0.1771 H       
  44 H44            5.0019    -6.9366    -0.0382 H       
  45 H45            0.7548    -6.5915     0.1768 H       
  46 H46            0.9535    -4.1505     0.4042 H       
  47 H47            1.2455    -2.3426     0.5487 H       
  48 H48            3.6832    -8.8749     0.1917 H       
  49 H49            0.7875    -9.0387     0.4721 H       
  50 H50            4.0453    -8.6770     1.9823 H       
  51 H51           -0.0672    -9.6346     2.6887 H       
  52 H52            0.5092   -10.0367     5.0703 H       
  53 H53            2.3239   -10.5776     9.2108 H       
  54 H54            5.0610    -9.3840     6.1435 H       
  55 H55            3.1262    -8.3275    -2.1945 H       
  56 H56            3.3544   -10.6798    -1.4442 H       
  57 H57            1.6274   -10.7101    -1.0140 H       
  58 H58            2.7583   -10.2032    -3.8035 H       
  59 H59            2.0060   -11.7176    -3.2479 H       
  60 H60            0.3819   -10.3244    -4.5008 H       
  61 H61           -0.1084   -10.5025    -2.7990 H       
  62 H62            1.3904    -8.1199    -3.9795 H       
  63 H63           -0.3366    -8.1502    -3.5493 H       
  64 H64            0.2595    -8.6268    -1.1900 H       
  65 H65            1.0118    -7.1124    -1.7456 H       
@<TRIPOS>BOND
   1    1    2 1
   2    1    4 2
   3    1    5 1
   4    2    3 1
   5    2   38 1
   6    2   39 1
   7    3   14 1
   8    3   40 1
   9    3   41 1
  10    5   42 1
  11    6    7 1
  12    6   13 2
  13    6   14 am
  14    7    8 ar
  15    7   12 ar
  16    8    9 ar
  17    8   43 1
  18    9   10 ar
  19    9   44 1
  20   10   11 ar
  21   10   15 1
  22   11   12 ar
  23   11   45 1
  24   12   46 1
  25   14   47 1
  26   15   16 1
  27   15   32 1
  28   15   48 1
  29   16   18 1
  30   16   49 1
  31   17   18 ar
  32   17   22 ar
  33   17   50 1
  34   18   19 ar
  35   19   20 ar
  36   19   51 1
  37   20   21 ar
  38   20   52 1
  39   21   22 ar
  40   21   23 1
  41   23   24 1
  42   23   27 1
  43   24   25 2
  44   25   26 1
  45   25   53 1
  46   26   27 2
  47   26   28 1
  48   27   54 1
  49   28   29 1
  50   28   30 1
  51   28   31 1
  52   32   33 1
  53   32   37 1
  54   32   55 1
  55   33   34 1
  56   33   56 1
  57   33   57 1
  58   34   35 1
  59   34   58 1
  60   34   59 1
  61   35   36 1
  62   35   60 1
  63   35   61 1
  64   36   37 1
  65   36   62 1
  66   36   63 1
  67   37   64 1
  68   37   65 1

#	End of record

