#	Name: ASD01148496
#	Creating user name:	WinNT
#	Creation time:	15. 06. 2019 19:02

#	Modifying user name:	WinNT
#	Modification time:	15. 06. 2019 19:02

#	Program:	/corina/corina34_cracker 3.40 0067  02.08.2006

@<TRIPOS>MOLECULE
ASD01148496
  49   52    0    0    0
SMALL
NO_CHARGES


@<TRIPOS>ATOM
   1 C1            -0.0180     1.4351     0.0450 C.ar    
   2 C2            -0.0166     0.0528     0.0405 C.ar    
   3 C3             1.1810    -0.6371     0.0176 C.ar    
   4 C4             2.3773     0.0553    -0.0013 C.ar    
   5 C5             2.3759     1.4377     0.0023 C.ar    
   6 C6             1.1783     2.1276     0.0267 C.ar    
   7 C7             3.6801     2.1925    -0.0177 C.3     
   8 O8             4.6901     1.4587    -0.7394 O.3     
   9 C9             3.5607     3.4817    -0.8651 C.3     
  10 C10            4.0472     3.0268    -2.2280 C.2     
  11 N11            4.6599     1.8982    -2.0829 N.2     
  12 C12            3.8539     3.7470    -3.4981 C.ar    
  13 C13            4.3769     3.1927    -4.7445 C.ar    
  14 C14            3.1684     4.9539    -3.5194 C.ar    
  15 C15            2.9714     5.6511    -4.6980 C.ar    
  16 C16            3.4512     5.1739    -5.9104 C.ar    
  17 C17            4.1761     3.9059    -5.9500 C.ar    
  18 C18            3.2260     5.9383    -7.1496 C.2     
  19 O19            3.7374     5.5733    -8.1904 O.2     
  20 N20            2.4532     7.0423    -7.1294 N.am    
  21 C21            4.6772     3.3862    -7.1500 C.ar    
  22 C22            5.0694     1.9755    -4.7709 C.ar    
  23 C23            4.1465     2.5121     1.4040 C.3     
  24 F24            4.3114     1.3212     2.1194 F       
  25 F25            5.3649     3.1975     1.3521 F       
  26 F26            3.1894     3.3097     2.0405 F       
  27 C27            2.2472     7.7416    -8.2629 C.2     
  28 O28            1.4754     8.8441    -8.2427 O.3     
  29 C29            1.2974     9.5473    -9.5005 C.3     
  30 O30            2.7582     7.3769    -9.3029 O.2     
  31 C31            5.5403     1.4944    -5.9564 C.ar    
  32 C32            5.3476     2.1990    -7.1417 C.ar    
  33 H33           -0.9537     1.9742     0.0584 H       
  34 H34           -0.9512    -0.4882     0.0552 H       
  35 H35            1.1821    -1.7171     0.0147 H       
  36 H36            3.3130    -0.4837    -0.0185 H       
  37 H37            1.1772     3.2076     0.0291 H       
  38 H38            2.5248     3.8167    -0.9161 H       
  39 H39            4.2033     4.2671    -0.4673 H       
  40 H40            2.7802     5.3572    -2.5959 H       
  41 H41            2.4324     6.5867    -4.6745 H       
  42 H42            2.0452     7.3335    -6.2989 H       
  43 H43            4.5333     3.9223    -8.0764 H       
  44 H44            5.2297     1.4217    -3.8577 H       
  45 H45            2.2675     9.8758    -9.8736 H       
  46 H46            0.8355     8.8797   -10.2279 H       
  47 H47            0.6557    10.4145    -9.3444 H       
  48 H48            6.0745     0.5559    -5.9757 H       
  49 H49            5.7337     1.7990    -8.0676 H       
@<TRIPOS>BOND
   1    1    2 ar
   2    1    6 ar
   3    1   33 1
   4    2    3 ar
   5    2   34 1
   6    3    4 ar
   7    3   35 1
   8    4    5 ar
   9    4   36 1
  10    5    6 ar
  11    5    7 1
  12    6   37 1
  13    7    8 1
  14    7    9 1
  15    7   23 1
  16    8   11 1
  17    9   10 1
  18    9   38 1
  19    9   39 1
  20   10   11 2
  21   10   12 1
  22   12   13 ar
  23   12   14 ar
  24   13   22 ar
  25   13   17 ar
  26   14   15 ar
  27   14   40 1
  28   15   16 ar
  29   15   41 1
  30   16   17 ar
  31   16   18 1
  32   17   21 ar
  33   18   19 2
  34   18   20 am
  35   20   27 am
  36   20   42 1
  37   21   32 ar
  38   21   43 1
  39   22   31 ar
  40   22   44 1
  41   23   24 1
  42   23   25 1
  43   23   26 1
  44   27   28 1
  45   27   30 2
  46   28   29 1
  47   29   45 1
  48   29   46 1
  49   29   47 1
  50   31   32 ar
  51   31   48 1
  52   32   49 1

#	End of record

