#	Name: ASD05790031
#	Creating user name:	WinNT
#	Creation time:	15. 06. 2019 21:03

#	Modifying user name:	WinNT
#	Modification time:	15. 06. 2019 21:03

#	Program:	/corina/corina34_cracker 3.40 0067  02.08.2006

@<TRIPOS>MOLECULE
ASD05790031
  45   48    0    0    0
SMALL
NO_CHARGES


@<TRIPOS>ATOM
   1 C1            -0.1753     1.4733    -0.5693 C.2     
   2 C2            -0.1532    -0.0033    -0.5732 C.ar    
   3 C3             0.8992    -0.6880    -1.1878 C.ar    
   4 C4             0.9135    -2.0684    -1.1871 C.ar    
   5 C5            -0.1117    -2.7736    -0.5798 C.ar    
   6 C6            -1.1571    -2.1001     0.0308 C.ar    
   7 C7            -1.1805    -0.7216     0.0422 C.ar    
   8 O8             0.7231     2.0961    -1.1015 O.2     
   9 N9            -1.1942     2.1305     0.0193 N.am    
  10 C10           -1.1619     3.5228     0.1191 C.ar    
  11 C11           -2.3411     4.2531     0.0191 C.ar    
  12 C12           -2.3127     5.6269     0.1171 C.ar    
  13 C13           -1.0980     6.2862     0.3177 C.ar    
  14 C14            0.0845     5.5498     0.4183 C.ar    
  15 C15            0.0486     4.1759     0.3242 C.ar    
  16 O16           -2.1301     8.5742     0.3426 O.3     
  17 C17           -1.0638     7.7594     0.4229 C.2     
  18 N18            0.0115     8.4862     0.6106 N.2     
  19 C19           -0.3499     9.7855     0.6539 C.2     
  20 C20           -1.6951     9.8413     0.4856 C.2     
  21 C21            0.5583    10.9426     0.8503 C.ar    
  22 C22            1.6695    10.8259     1.6830 C.ar    
  23 C23            2.5107    11.9053     1.8621 C.ar    
  24 C24            2.2526    13.1012     1.2168 C.ar    
  25 C25            1.1510    13.2226     0.3890 C.ar    
  26 C26            0.3062    12.1480     0.1982 C.ar    
  27 C27           -2.5434    11.0866     0.4633 C.3     
  28 Cl28          -0.0873    -4.5094    -0.5840 Cl      
  29 Cl29           2.1844     0.1953    -1.9505 Cl      
  30 H30            1.7256    -2.5992    -1.6615 H       
  31 H31           -1.9535    -2.6562     0.5027 H       
  32 H32           -1.9940    -0.1983     0.5227 H       
  33 H33           -1.9499     1.6362     0.3736 H       
  34 H34           -3.2802     3.7427    -0.1361 H       
  35 H35           -3.2288     6.1936     0.0386 H       
  36 H36            1.0255     6.0567     0.5730 H       
  37 H37            0.9621     3.6056     0.4056 H       
  38 H38            1.8718     9.8927     2.1876 H       
  39 H39            3.3720    11.8161     2.5075 H       
  40 H40            2.9133    13.9434     1.3600 H       
  41 H41            0.9539    14.1588    -0.1121 H       
  42 H42           -0.5509    12.2423    -0.4521 H       
  43 H43           -3.5874    10.8124     0.3116 H       
  44 H44           -2.4403    11.6135     1.4119 H       
  45 H45           -2.2162    11.7347    -0.3497 H       
@<TRIPOS>BOND
   1    1    2 1
   2    1    8 2
   3    1    9 am
   4    2    3 ar
   5    2    7 ar
   6    3    4 ar
   7    3   29 1
   8    4    5 ar
   9    4   30 1
  10    5    6 ar
  11    5   28 1
  12    6    7 ar
  13    6   31 1
  14    7   32 1
  15    9   10 1
  16    9   33 1
  17   10   11 ar
  18   10   15 ar
  19   11   12 ar
  20   11   34 1
  21   12   13 ar
  22   12   35 1
  23   13   14 ar
  24   13   17 1
  25   14   15 ar
  26   14   36 1
  27   15   37 1
  28   16   17 1
  29   16   20 1
  30   17   18 2
  31   18   19 1
  32   19   20 2
  33   19   21 1
  34   20   27 1
  35   21   22 ar
  36   21   26 ar
  37   22   23 ar
  38   22   38 1
  39   23   24 ar
  40   23   39 1
  41   24   25 ar
  42   24   40 1
  43   25   26 ar
  44   25   41 1
  45   26   42 1
  46   27   43 1
  47   27   44 1
  48   27   45 1

#	End of record

