#	Name: ASD02610053
#	Creating user name:	WinNT
#	Creation time:	15. 06. 2019 20:25

#	Modifying user name:	WinNT
#	Modification time:	15. 06. 2019 20:25

#	Program:	/corina/corina34_cracker 3.40 0067  02.08.2006

@<TRIPOS>MOLECULE
ASD02610053
 128  134    0    0    0
SMALL
NO_CHARGES


@<TRIPOS>ATOM
   1 O1            -0.0276    -0.3718     2.7329 O.3     
   2 C2             1.2753     0.1598     3.0908 C.3     
   3 C3             1.3589     1.6597     2.7471 C.3     
   4 C4             1.4780     0.1102     4.6248 C.3     
   5 O5             0.2223     0.0379     5.3031 O.3     
   6 C6             2.1800     1.4637     4.9035 C.3     
   7 O7             1.5381     2.3719     3.9827 O.3     
   8 N8             1.9536     1.8869     6.2877 N.pl3   
   9 C9             2.5500     1.9157     1.8215 C.3     
  10 C10            2.6861     1.5055     7.3833 C.ar    
  11 C11            2.1048     2.1572     8.4838 C.ar    
  12 N12            1.0671     2.8891     8.0120 N.2     
  13 C13            0.9803     2.7364     6.7224 C.2     
  14 N14            3.7368     0.7157     7.5812 N.ar    
  15 C15            4.2287     0.5441     8.7899 C.ar    
  16 N16            3.7164     1.1348     9.8543 N.ar    
  17 C17            2.6655     1.9419     9.7545 C.ar    
  18 N18            2.1356     2.5563    10.8756 N.pl3   
  19 O19            2.5516     3.2857     1.4151 O.3     
  20 P20            3.6669     3.9083     0.4351 P.3     
  21 O21            5.0723     3.6416     1.0191 O.co2   
  22 O22            3.5544     3.2493    -0.9577 O.co2   
  23 O23            3.4351     5.4956     0.2981 O.3     
  24 P24            4.3334     6.7138    -0.2508 P.3     
  25 O25            3.7749     8.1023     0.3428 O.3     
  26 O26            5.7989     6.5151     0.1961 O.co2   
  27 O27            4.2657     6.7490    -1.7939 O.co2   
  28 P28            4.3683     9.5957     0.4411 P.3     
  29 O29            5.2342     9.8983    -0.8289 O.co2   
  30 O30            3.1878    10.6223     0.5250 O.co2   
  31 O31            5.2603     9.7198     1.7231 O.co2   
  32 C32           -0.0820    -1.6696     2.3788 C.2     
  33 N33           -1.2607    -2.2255     2.0351 N.am    
  34 O34            0.9315    -2.3397     2.3691 O.2     
  35 C35           -1.3199    -3.6377     1.6498 C.3     
  36 C36           -2.7636    -4.0135     1.3099 C.3     
  37 N37           -2.8228    -5.4257     0.9246 N.am    
  38 C38           -4.0015    -5.9816     0.5809 C.2     
  39 C39           -8.2327   -10.3917    -2.1620 C.3     
  40 C40           -8.8665    -9.5808    -3.2932 C.3     
  41 C41           -7.9253    -9.5785    -4.5002 C.3     
  42 C42           -7.7059   -11.0170    -4.9706 C.3     
  43 C43           -7.0775   -11.8405    -3.8433 C.3     
  44 C44           -8.0003   -11.8328    -2.6236 C.3     
  45 C45           -9.0948    -8.1429    -2.8224 C.3     
  46 C46           -9.7201    -7.3274    -3.9557 C.3     
  47 C47           -8.7782    -7.3247    -5.1615 C.3     
  48 C48           -8.5508    -8.7622    -5.6332 C.3     
  49 N49           -4.0560    -7.2807     0.2264 N.am    
  50 C50           -5.3372    -7.8850    -0.1472 C.3     
  51 C51           -5.6129    -7.6207    -1.6288 C.3     
  52 C52           -6.9510    -8.2518    -2.0189 C.3     
  53 C53           -6.8946    -9.7607    -1.7719 C.3     
  54 C54           -6.6189   -10.0249    -0.2903 C.3     
  55 C55           -5.2808    -9.3938     0.0999 C.3     
  56 S56           -5.4295    -5.0374     0.5946 S.2     
  57 C57           -6.8904   -13.2811    -4.3357 C.3     
  58 C58           -6.4098   -14.1320    -3.1824 C.2     
  59 C59           -7.1909   -14.0843    -1.8874 C.3     
  60 C60           -7.3551   -12.6179    -1.4779 C.3     
  61 C61           -5.3470   -14.8887    -3.3007 C.2     
  62 C62           -7.7208    -9.4205     0.5413 C.2     
  63 O63           -8.6596    -8.8640    -0.0023 O.co2   
  64 O64           -7.6735    -9.4880     1.7578 O.co2   
  65 N65           -9.3781    -6.5413    -6.2498 N.3     
  66 C66          -10.4953    -4.4508    -6.8652 C.3     
  67 C67           -9.6120    -5.1526    -5.8318 C.3     
  68 C68           -7.1651    -6.0062    -7.1519 C.3     
  69 C69           -8.5441    -6.5940    -7.4580 C.3     
  70 H70            2.0648    -0.3929     2.5816 H       
  71 H71            0.4360     1.9813     2.2644 H       
  72 H72            2.1185    -0.7258     4.9057 H       
  73 H73            0.2971     0.0047     6.2666 H       
  74 H74            3.2475     1.3926     4.6948 H       
  75 H75            3.4762     1.6927     2.3512 H       
  76 H76            2.4711     1.2760     0.9425 H       
  77 H77            0.2412     3.2071     6.0910 H       
  78 H78            5.0832    -0.1043     8.9160 H       
  79 H79            2.5316     2.3999    11.7471 H       
  80 H80            1.3682     3.1433    10.7898 H       
  81 H81           -2.0698    -1.6905     2.0429 H       
  82 H82           -0.6866    -3.8034     0.7783 H       
  83 H83           -0.9689    -4.2549     2.4767 H       
  84 H84           -3.3970    -3.8478     2.1814 H       
  85 H85           -3.1147    -3.3962     0.4830 H       
  86 H86           -2.0137    -5.9606     0.9169 H       
  87 H87           -8.8980   -10.3906    -1.2987 H       
  88 H88           -9.8186   -10.0305    -3.5745 H       
  89 H89           -6.9694    -9.1386    -4.2158 H       
  90 H90           -8.6632   -11.4567    -5.2504 H       
  91 H91           -7.0412   -11.0184    -5.8344 H       
  92 H92           -6.1119   -11.4129    -3.5734 H       
  93 H93           -8.9547   -12.2890    -2.8866 H       
  94 H94           -9.7653    -8.1442    -1.9630 H       
  95 H95           -8.1412    -7.6980    -2.5382 H       
  96 H96          -10.6735    -7.7725    -4.2404 H       
  97 H97           -9.8830    -6.3034    -3.6196 H       
  98 H98           -7.8245    -6.8805    -4.8766 H       
  99 H99           -7.8805    -8.7607    -6.4927 H       
 100 H100          -9.5047    -9.2065    -5.9173 H       
 101 H101          -3.2468    -7.8157     0.2187 H       
 102 H102          -6.1342    -7.4478     0.4543 H       
 103 H103          -5.6531    -6.5458    -1.8048 H       
 104 H104          -4.8159    -8.0579    -2.2303 H       
 105 H105          -7.7480    -7.8147    -1.4175 H       
 106 H106          -7.1474    -8.0636    -3.0744 H       
 107 H107          -6.0976   -10.1978    -2.3734 H       
 108 H108          -6.5787   -11.0998    -0.1143 H       
 109 H109          -4.4838    -9.8310    -0.5016 H       
 110 H110          -5.0844    -9.5821     1.1554 H       
 111 H111          -7.8407   -13.6677    -4.7037 H       
 112 H112          -6.1512   -13.3002    -5.1366 H       
 113 H113          -8.1716   -14.5370    -2.0332 H       
 114 H114          -6.6483   -14.6239    -1.1112 H       
 115 H115          -6.3773   -12.1925    -1.2520 H       
 116 H116          -7.9898   -12.5570    -0.5938 H       
 117 H117          -4.8007   -14.9108    -4.2320 H       
 118 H118          -5.0172   -15.4906    -2.4668 H       
 119 H119         -10.0073    -4.4789    -7.8394 H       
 120 H120         -11.4575    -4.9593    -6.9260 H       
 121 H121         -10.6506    -3.4141    -6.5664 H       
 122 H122         -10.1100    -5.1439    -4.8622 H       
 123 H123          -8.6581    -4.6307    -5.7548 H       
 124 H124          -7.2703    -4.9562    -6.8786 H       
 125 H125          -6.7123    -6.5533    -6.3250 H       
 126 H126          -6.5304    -6.0902    -8.0340 H       
 127 H127          -8.4344    -7.6299    -7.7788 H       
 128 H128          -9.0175    -6.0160    -8.2517 H       
@<TRIPOS>BOND
   1    1   32 1
   2    1    2 1
   3    2    3 1
   4    2    4 1
   5    2   70 1
   6    3    7 1
   7    3    9 1
   8    3   71 1
   9    4    5 1
  10    4    6 1
  11    4   72 1
  12    5   73 1
  13    6    8 1
  14    6    7 1
  15    6   74 1
  16    8   10 1
  17    8   13 1
  18    9   19 1
  19    9   75 1
  20    9   76 1
  21   10   11 ar
  22   10   14 ar
  23   11   12 1
  24   11   17 ar
  25   12   13 2
  26   13   77 1
  27   14   15 ar
  28   15   16 ar
  29   15   78 1
  30   16   17 ar
  31   17   18 1
  32   18   79 1
  33   18   80 1
  34   19   20 1
  35   20   21 ar
  36   20   22 ar
  37   20   23 1
  38   23   24 1
  39   24   25 1
  40   24   26 ar
  41   24   27 ar
  42   25   28 1
  43   28   29 ar
  44   28   30 ar
  45   28   31 ar
  46   32   33 am
  47   32   34 2
  48   33   35 1
  49   33   81 1
  50   35   36 1
  51   35   82 1
  52   35   83 1
  53   36   37 1
  54   36   84 1
  55   36   85 1
  56   37   38 am
  57   37   86 1
  58   38   49 am
  59   38   56 2
  60   39   40 1
  61   39   44 1
  62   39   53 1
  63   39   87 1
  64   40   41 1
  65   40   45 1
  66   40   88 1
  67   41   42 1
  68   41   48 1
  69   41   89 1
  70   42   43 1
  71   42   90 1
  72   42   91 1
  73   43   44 1
  74   43   57 1
  75   43   92 1
  76   44   60 1
  77   44   93 1
  78   45   46 1
  79   45   94 1
  80   45   95 1
  81   46   47 1
  82   46   96 1
  83   46   97 1
  84   47   48 1
  85   47   65 1
  86   47   98 1
  87   48   99 1
  88   48  100 1
  89   49   50 1
  90   49  101 1
  91   50   51 1
  92   50   55 1
  93   50  102 1
  94   51   52 1
  95   51  103 1
  96   51  104 1
  97   52   53 1
  98   52  105 1
  99   52  106 1
 100   53   54 1
 101   53  107 1
 102   54   55 1
 103   54   62 1
 104   54  108 1
 105   55  109 1
 106   55  110 1
 107   57   58 1
 108   57  111 1
 109   57  112 1
 110   58   59 1
 111   58   61 2
 112   59   60 1
 113   59  113 1
 114   59  114 1
 115   60  115 1
 116   60  116 1
 117   61  117 1
 118   61  118 1
 119   62   63 ar
 120   62   64 ar
 121   65   67 1
 122   65   69 1
 123   66   67 1
 124   66  119 1
 125   66  120 1
 126   66  121 1
 127   67  122 1
 128   67  123 1
 129   68   69 1
 130   68  124 1
 131   68  125 1
 132   68  126 1
 133   69  127 1
 134   69  128 1

#	End of record

