#	Name: ASD01913706
#	Creating user name:	WinNT
#	Creation time:	15. 06. 2019 20:02

#	Modifying user name:	WinNT
#	Modification time:	15. 06. 2019 20:02

#	Program:	/corina/corina34_cracker 3.40 0067  02.08.2006

@<TRIPOS>MOLECULE
ASD01913706
  53   57    0    0    0
SMALL
NO_CHARGES


@<TRIPOS>ATOM
   1 C1            -0.0184     1.5028     0.0103 C.ar    
   2 C2             0.0021    -0.0041     0.0020 C.3     
   3 O3             0.0214    -0.4876     1.3466 O.3     
   4 C4             0.0413    -1.8317     1.5167 C.ar    
   5 N5             0.0420    -2.6238     0.4557 N.ar    
   6 C6             0.0610    -3.9354     0.5691 C.ar    
   7 C7             0.0807    -4.5400     1.8264 C.ar    
   8 C8             0.0805    -3.7291     2.9711 C.ar    
   9 C9             0.0664    -2.3598     2.8041 C.ar    
  10 C10            0.1009    -6.0108     1.9502 C.2     
  11 N11            0.1004    -6.7803     0.8437 N.am    
  12 O12            0.1179    -6.5281     3.0503 O.2     
  13 C13            1.1693     2.2102     0.0028 C.ar    
  14 C14            1.1505     3.5924     0.0104 C.ar    
  15 C15           -0.0559     4.2672     0.0251 C.ar    
  16 C16           -1.2435     3.5598     0.0318 C.ar    
  17 C17           -1.2248     2.1776     0.0197 C.ar    
  18 C18            0.1205    -8.2400     0.9665 C.3     
  19 C19           -0.4929    -8.8658    -0.2876 C.3     
  20 C20            1.5653    -8.7189     1.1210 C.3     
  21 C21            0.3176    -8.4462    -1.5156 C.3     
  22 C22            1.7624    -8.9252    -1.3611 C.3     
  23 C23            1.5863   -10.2434     1.2493 C.3     
  24 C24            0.9729   -10.8693    -0.0048 C.3     
  25 C25            1.7834   -10.4496    -1.2328 C.3     
  26 C26           -0.4720   -10.3903    -0.1593 C.3     
  27 C27            2.3758    -8.2993    -0.1070 C.3     
  28 H28           -0.8878    -0.3767    -0.5053 H       
  29 H29            0.8920    -0.3525    -0.5222 H       
  30 H30            0.0609    -4.5492    -0.3196 H       
  31 H31            0.0954    -4.1660     3.9587 H       
  32 H32            0.0662    -1.7049     3.6629 H       
  33 H33            0.0868    -6.3676    -0.0341 H       
  34 H34            2.1118     1.6830    -0.0087 H       
  35 H35            2.0784     4.1450     0.0052 H       
  36 H36           -0.0705     5.3471     0.0318 H       
  37 H37           -2.1860     4.0870     0.0436 H       
  38 H38           -2.1526     1.6249     0.0249 H       
  39 H39           -0.4569    -8.5389     1.8414 H       
  40 H40           -1.5223    -8.5246    -0.3977 H       
  41 H41            2.0024    -8.2731     2.0145 H       
  42 H42           -0.1194    -8.8920    -2.4091 H       
  43 H43            0.3026    -7.3601    -1.6070 H       
  44 H44            2.3398    -8.6262    -2.2360 H       
  45 H45            2.6157   -10.5846     1.3594 H       
  46 H46            1.0089   -10.5424     2.1242 H       
  47 H47            0.9878   -11.9553     0.0866 H       
  48 H48            1.3464   -10.8955    -2.1263 H       
  49 H49            2.8127   -10.7908    -1.1227 H       
  50 H50           -1.0494   -10.6892     0.7155 H       
  51 H51           -0.9090   -10.8361    -1.0528 H       
  52 H52            2.3609    -7.2132    -0.1984 H       
  53 H53            3.4052    -8.6405     0.0031 H       
@<TRIPOS>BOND
   1    1    2 1
   2    1   13 ar
   3    1   17 ar
   4    2    3 1
   5    2   28 1
   6    2   29 1
   7    3    4 1
   8    4    5 ar
   9    4    9 ar
  10    5    6 ar
  11    6    7 ar
  12    6   30 1
  13    7    8 ar
  14    7   10 1
  15    8    9 ar
  16    8   31 1
  17    9   32 1
  18   10   11 am
  19   10   12 2
  20   11   18 1
  21   11   33 1
  22   13   14 ar
  23   13   34 1
  24   14   15 ar
  25   14   35 1
  26   15   16 ar
  27   15   36 1
  28   16   17 ar
  29   16   37 1
  30   17   38 1
  31   18   19 1
  32   18   20 1
  33   18   39 1
  34   19   21 1
  35   19   26 1
  36   19   40 1
  37   20   23 1
  38   20   27 1
  39   20   41 1
  40   21   22 1
  41   21   42 1
  42   21   43 1
  43   22   25 1
  44   22   27 1
  45   22   44 1
  46   23   24 1
  47   23   45 1
  48   23   46 1
  49   24   25 1
  50   24   26 1
  51   24   47 1
  52   25   48 1
  53   25   49 1
  54   26   50 1
  55   26   51 1
  56   27   52 1
  57   27   53 1

#	End of record

