#	Name: ASD09530002
#	Creating user name:	WinNT
#	Creation time:	15. 06. 2019 21:22

#	Modifying user name:	WinNT
#	Modification time:	15. 06. 2019 21:22

#	Program:	/corina/corina34_cracker 3.40 0067  02.08.2006

@<TRIPOS>MOLECULE
ASD09530002
  45   47    0    0    0
SMALL
NO_CHARGES


@<TRIPOS>ATOM
   1 C1             0.3369     0.3889     0.9459 C.2     
   2 O2             0.6702    -0.7158     1.3196 O.2     
   3 C3             1.3778     1.3695     0.4707 C.3     
   4 S4             3.0202     0.6068     0.5770 S.o     
   5 C5             4.1188     1.9179    -0.0270 C.3     
   6 C6             5.5280     1.3912    -0.1158 C.ar    
   7 C7             6.5649     2.0879     0.4763 C.ar    
   8 C8             7.8575     1.6048     0.3947 C.ar    
   9 C9             8.1132     0.4248    -0.2785 C.ar    
  10 C10            7.0762    -0.2722    -0.8698 C.ar    
  11 C11            5.7830     0.2086    -0.7846 C.ar    
  12 C12            3.6631     2.3662    -1.3917 C.ar    
  13 C13            3.4632     3.7100    -1.6468 C.ar    
  14 C14            3.0452     4.1211    -2.8986 C.ar    
  15 C15            2.8274     3.1885    -3.8955 C.ar    
  16 C16            3.0281     1.8448    -3.6406 C.ar    
  17 C17            3.4504     1.4340    -2.3900 C.ar    
  18 O18            3.3237     0.3232     1.9359 O.2     
  19 N19           -0.9650     0.7374     0.9505 N.am    
  20 C20           -1.4023     2.0685     0.5040 C.3     
  21 C21           -2.0080    -0.2014     1.3972 C.3     
  22 C22           -2.7112     0.4084     2.6114 C.3     
  23 N23           -3.0478     1.8041     2.3664 N.am    
  24 C24           -2.4483     2.5822     1.4554 C.2     
  25 O25           -2.7616     3.7524     1.3979 O.2     
  26 H26            1.1716     1.6455    -0.5634 H       
  27 H27            1.3500     2.2610     1.0972 H       
  28 H28            4.0893     2.7625     0.6615 H       
  29 H29            6.3651     3.0097     1.0022 H       
  30 H30            8.6676     2.1494     0.8567 H       
  31 H31            9.1232     0.0478    -0.3428 H       
  32 H32            7.2760    -1.1939    -1.3961 H       
  33 H33            4.9723    -0.3379    -1.2434 H       
  34 H34            3.6334     4.4386    -0.8680 H       
  35 H35            2.8883     5.1710    -3.0977 H       
  36 H36            2.5001     3.5097    -4.8733 H       
  37 H37            2.8576     1.1161    -4.4193 H       
  38 H38            3.6108     0.3845    -2.1920 H       
  39 H39           -0.5507     2.7488     0.4957 H       
  40 H40           -1.8242     1.9968    -0.4985 H       
  41 H41           -2.7292    -0.3587     0.5952 H       
  42 H42           -1.5528    -1.1520     1.6749 H       
  43 H43           -3.6245    -0.1505     2.8152 H       
  44 H44           -2.0519     0.3450     3.4771 H       
  45 H45           -3.7574     2.1970     2.8984 H       
@<TRIPOS>BOND
   1    1    2 2
   2    1    3 1
   3    1   19 am
   4    3    4 1
   5    3   26 1
   6    3   27 1
   7    4    5 1
   8    4   18 2
   9    5    6 1
  10    5   12 1
  11    5   28 1
  12    6    7 ar
  13    6   11 ar
  14    7    8 ar
  15    7   29 1
  16    8    9 ar
  17    8   30 1
  18    9   10 ar
  19    9   31 1
  20   10   11 ar
  21   10   32 1
  22   11   33 1
  23   12   13 ar
  24   12   17 ar
  25   13   14 ar
  26   13   34 1
  27   14   15 ar
  28   14   35 1
  29   15   16 ar
  30   15   36 1
  31   16   17 ar
  32   16   37 1
  33   17   38 1
  34   19   20 1
  35   19   21 1
  36   20   24 1
  37   20   39 1
  38   20   40 1
  39   21   22 1
  40   21   41 1
  41   21   42 1
  42   22   23 1
  43   22   43 1
  44   22   44 1
  45   23   24 am
  46   23   45 1
  47   24   25 2

#	End of record

