#	Name: ASD01880317
#	Creating user name:	WinNT
#	Creation time:	15. 06. 2019 19:40

#	Modifying user name:	WinNT
#	Modification time:	15. 06. 2019 19:40

#	Program:	/corina/corina34_cracker 3.40 0067  02.08.2006

@<TRIPOS>MOLECULE
ASD01880317
  35   36    0    0    0
SMALL
NO_CHARGES


@<TRIPOS>ATOM
   1 C1            -0.0158     1.3166     0.0093 C.ar    
   2 N2             0.0021    -0.0041     0.0020 N.ar    
   3 C3            -1.1218    -0.7055     0.0094 C.ar    
   4 C4            -2.3611    -0.0158     0.0254 C.ar    
   5 C5            -2.3234     1.3812     0.0325 C.ar    
   6 N6            -1.1363     2.0007     0.0291 N.ar    
   7 C7            -3.7205    -0.5227     0.0357 C.2     
   8 C8            -4.6572     0.4056     0.0497 C.2     
   9 S9            -3.9623     2.0156     0.0517 S.3     
  10 N10           -1.0871    -2.0883     0.0012 N.pl3   
  11 C11            0.1995    -2.7886    -0.0158 C.3     
  12 C12           -0.0423    -4.2994    -0.0220 C.3     
  13 C13            1.2933     2.0630     0.0008 C.3     
  14 C14           -1.9043    -5.2678    -1.2695 C.2     
  15 C15           -0.7276    -4.6932    -1.3051 C.2     
  16 C16            1.7226     2.3233    -1.4445 C.3     
  17 C17            1.2771    -5.0197     0.0844 C.2     
  18 C18            1.5053    -5.8231     1.0937 C.2     
  19 H19           -3.9477    -1.5785     0.0318 H       
  20 H20           -5.7175     0.2003     0.0587 H       
  21 H21           -1.9147    -2.5942     0.0067 H       
  22 H22            0.7553    -2.5060    -0.9099 H       
  23 H23            0.7733    -2.5161     0.8700 H       
  24 H24           -0.6732    -4.5698     0.8247 H       
  25 H25            1.1731     3.0133     0.5209 H       
  26 H26            2.0546     1.4670     0.5042 H       
  27 H27           -2.3833    -5.4592    -0.3207 H       
  28 H28           -2.3955    -5.5500    -2.1890 H       
  29 H29           -0.2486    -4.5018    -2.2539 H       
  30 H30            1.8428     1.3730    -1.9646 H       
  31 H31            0.9613     2.9193    -1.9479 H       
  32 H32            2.6695     2.8632    -1.4506 H       
  33 H33            2.0346    -4.8737    -0.6714 H       
  34 H34            2.4509    -6.3393     1.1700 H       
  35 H35            0.7478    -5.9692     1.8496 H       
@<TRIPOS>BOND
   1    1    2 ar
   2    1   13 1
   3    1    6 ar
   4    2    3 ar
   5    3    4 ar
   6    3   10 1
   7    4    5 ar
   8    4    7 1
   9    5    6 ar
  10    5    9 1
  11    7    8 2
  12    7   19 1
  13    8    9 1
  14    8   20 1
  15   10   11 1
  16   10   21 1
  17   11   12 1
  18   11   22 1
  19   11   23 1
  20   12   17 1
  21   12   15 1
  22   12   24 1
  23   13   16 1
  24   13   25 1
  25   13   26 1
  26   14   15 2
  27   14   27 1
  28   14   28 1
  29   15   29 1
  30   16   30 1
  31   16   31 1
  32   16   32 1
  33   17   18 2
  34   17   33 1
  35   18   34 1
  36   18   35 1

#	End of record

