#	Name: ASD00660021
#	Creating user name:	WinNT
#	Creation time:	15. 06. 2019 18:36

#	Modifying user name:	WinNT
#	Modification time:	15. 06. 2019 18:36

#	Program:	/corina/corina34_cracker 3.40 0067  02.08.2006

@<TRIPOS>MOLECULE
ASD00660021
  66   69    0    0    0
SMALL
NO_CHARGES


@<TRIPOS>ATOM
   1 C1             6.3586    -2.2108    -6.9557 C.ar    
   2 C2             5.8265    -3.3059    -6.2872 C.ar    
   3 C3             5.6840    -3.2956    -4.9184 C.ar    
   4 C4             6.0789    -2.1702    -4.1898 C.ar    
   5 C5             6.6201    -1.0575    -4.8736 C.ar    
   6 C6             6.7553    -1.0897    -6.2604 C.ar    
   7 N7             5.9551    -2.1196    -2.8427 N.2     
   8 C8             6.3250    -1.0644    -2.1597 C.2     
   9 N9             6.8564     0.0510    -2.7415 N.am    
  10 C10            7.0265     0.1122    -4.0825 C.2     
  11 C11            7.2450     1.1907    -1.9071 C.3     
  12 O12            7.4992     1.1000    -4.6140 O.2     
  13 S13            6.1271    -1.0853    -0.4090 S.3     
  14 C14            5.2588    -2.6608    -0.2096 C.3     
  15 C15            6.1912    -3.7948    -0.5498 C.2     
  16 N16            5.6922    -4.9761    -0.9646 N.am    
  17 O17            7.3905    -3.6444    -0.4504 O.2     
  18 C18            6.5885    -6.0910    -1.2999 C.3     
  19 C19            6.2533    -6.5861    -2.7103 C.3     
  20 C20            4.7645    -6.9324    -2.7846 C.3     
  21 C21            3.9328    -5.6791    -2.5023 C.3     
  22 C22            4.2415    -5.1755    -1.0841 C.3     
  23 C23            4.4380    -7.4520    -4.1610 C.2     
  24 N24            3.1770    -7.8222    -4.4600 N.am    
  25 O25            5.3099    -7.5370    -4.9997 O.2     
  26 C26            4.7887    -2.8043     1.2393 C.3     
  27 C27            3.7366    -1.7355     1.5423 C.3     
  28 C28            3.1737    -1.9579     2.9475 C.3     
  29 C29            2.1217    -0.8891     3.2505 C.3     
  30 C30            8.6817     1.0340    -1.4802 C.ar    
  31 C31            9.7055     1.5542    -2.2567 C.ar    
  32 C32           11.0124     1.3865    -1.8244 C.ar    
  33 C33           11.2492     0.7112    -0.6423 C.ar    
  34 N34           10.2501     0.2291     0.0710 N.ar    
  35 C35            8.9951     0.3747    -0.3064 C.ar    
  36 H36            6.4665    -2.2402    -8.0299 H       
  37 H37            5.5205    -4.1763    -6.8487 H       
  38 H38            5.2686    -4.1529    -4.4097 H       
  39 H39            7.1683    -0.2416    -6.7863 H       
  40 H40            7.1339     2.1131    -2.4772 H       
  41 H41            6.6060     1.2297    -1.0249 H       
  42 H42            4.3964    -2.6872    -0.8757 H       
  43 H43            7.6234    -5.7500    -1.2686 H       
  44 H44            6.4469    -6.9014    -0.5849 H       
  45 H45            6.4815    -5.8038    -3.4343 H       
  46 H46            6.8449    -7.4737    -2.9345 H       
  47 H47            4.5320    -7.6970    -2.0434 H       
  48 H48            4.1828    -4.9054    -3.2282 H       
  49 H49            2.8727    -5.9211    -2.5784 H       
  50 H50            3.9071    -5.9124    -0.3539 H       
  51 H51            3.7285    -4.2292    -0.9127 H       
  52 H52            2.4796    -7.7542    -3.7892 H       
  53 H53            2.9669    -8.1567    -5.3459 H       
  54 H54            4.3540    -3.7933     1.3840 H       
  55 H55            5.6380    -2.6788     1.9109 H       
  56 H56            4.1952    -0.7482     1.4867 H       
  57 H57            2.9296    -1.8029     0.8128 H       
  58 H58            2.7152    -2.9452     3.0031 H       
  59 H59            3.9807    -1.8905     3.6771 H       
  60 H60            1.7206    -1.0476     4.2516 H       
  61 H61            2.5802     0.0981     3.1949 H       
  62 H62            1.3146    -0.9566     2.5210 H       
  63 H63            9.4904     2.0774    -3.1767 H       
  64 H64           11.8348     1.7785    -2.4045 H       
  65 H65           12.2641     0.5764    -0.2987 H       
  66 H66            8.2034    -0.0340     0.3040 H       
@<TRIPOS>BOND
   1    1    2 ar
   2    1    6 ar
   3    1   36 1
   4    2    3 ar
   5    2   37 1
   6    3    4 ar
   7    3   38 1
   8    4    5 ar
   9    4    7 1
  10    5    6 ar
  11    5   10 1
  12    6   39 1
  13    7    8 2
  14    8    9 1
  15    8   13 1
  16    9   10 am
  17    9   11 1
  18   10   12 2
  19   11   30 1
  20   11   40 1
  21   11   41 1
  22   13   14 1
  23   14   15 1
  24   14   26 1
  25   14   42 1
  26   15   16 am
  27   15   17 2
  28   16   18 1
  29   16   22 1
  30   18   19 1
  31   18   43 1
  32   18   44 1
  33   19   20 1
  34   19   45 1
  35   19   46 1
  36   20   21 1
  37   20   23 1
  38   20   47 1
  39   21   22 1
  40   21   48 1
  41   21   49 1
  42   22   50 1
  43   22   51 1
  44   23   24 am
  45   23   25 2
  46   24   52 1
  47   24   53 1
  48   26   27 1
  49   26   54 1
  50   26   55 1
  51   27   28 1
  52   27   56 1
  53   27   57 1
  54   28   29 1
  55   28   58 1
  56   28   59 1
  57   29   60 1
  58   29   61 1
  59   29   62 1
  60   30   31 ar
  61   30   35 ar
  62   31   32 ar
  63   31   63 1
  64   32   33 ar
  65   32   64 1
  66   33   34 ar
  67   33   65 1
  68   34   35 ar
  69   35   66 1

#	End of record

