#	Name: ASD01917604
#	Creating user name:	WinNT
#	Creation time:	15. 06. 2019 20:09

#	Modifying user name:	WinNT
#	Modification time:	15. 06. 2019 20:09

#	Program:	/corina/corina34_cracker 3.40 0067  02.08.2006

@<TRIPOS>MOLECULE
ASD01917604
  33   34    0    0    0
SMALL
NO_CHARGES


@<TRIPOS>ATOM
   1 C1            -0.0169     1.3963     0.0097 C.2     
   2 C2             0.0021    -0.0041     0.0020 C.2     
   3 C3             1.2013    -0.6550    -0.0130 C.2     
   4 C4             2.3889     0.0902    -0.0203 C.2     
   5 C5             2.3460     1.4424    -0.0122 C.2     
   6 N6             1.1530     2.1003     0.0023 N.pl3   
   7 N7             0.8355     3.4640     0.0127 N.2     
   8 C8            -0.4630     3.6126     0.0259 C.2     
   9 C9            -1.0632     2.3408     0.0191 C.2     
  10 C10           -2.4984     2.0531     0.0229 C.2     
  11 O11           -3.0908     1.9280     1.0780 O.2     
  12 O12           -3.1641     1.9267    -1.1436 O.3     
  13 C13           -1.1960     4.9292     0.0401 C.3     
  14 C14           -0.1837     6.0765     0.0360 C.3     
  15 C15           -2.0866     5.0305    -1.1999 C.3     
  16 C16           -2.0618     5.0175     1.2984 C.3     
  17 Br17           4.0579    -0.7985    -0.0411 Br      
  18 C18           -4.5855     1.6414    -1.0638 C.3     
  19 H19           -0.9222    -0.5626     0.0082 H       
  20 H20            1.2354    -1.7345    -0.0187 H       
  21 H21            3.2671     2.0062    -0.0173 H       
  22 H22            0.4331     6.0136    -0.8605 H       
  23 H23           -0.7138     7.0288     0.0462 H       
  24 H24            0.4508     6.0044     0.9194 H       
  25 H25           -2.8077     4.2132    -1.1970 H       
  26 H26           -2.6167     5.9829    -1.1897 H       
  27 H27           -1.4697     4.9676    -2.0964 H       
  28 H28           -1.4273     4.9454     2.1818 H       
  29 H29           -2.5919     5.9698     1.3086 H       
  30 H30           -2.7830     4.2002     1.3013 H       
  31 H31           -4.7380     0.6999    -0.5361 H       
  32 H32           -5.0878     2.4452    -0.5255 H       
  33 H33           -4.9978     1.5648    -2.0699 H       
@<TRIPOS>BOND
   1    1    2 1
   2    1    6 1
   3    1    9 2
   4    2    3 2
   5    2   19 1
   6    3    4 1
   7    3   20 1
   8    4    5 2
   9    4   17 1
  10    5    6 1
  11    5   21 1
  12    6    7 1
  13    7    8 2
  14    8    9 1
  15    8   13 1
  16    9   10 1
  17   10   11 2
  18   10   12 1
  19   12   18 1
  20   13   14 1
  21   13   16 1
  22   13   15 1
  23   14   22 1
  24   14   23 1
  25   14   24 1
  26   15   25 1
  27   15   26 1
  28   15   27 1
  29   16   28 1
  30   16   29 1
  31   16   30 1
  32   18   31 1
  33   18   32 1
  34   18   33 1

#	End of record

