#	Name: ASD01812676
#	Creating user name:	WinNT
#	Creation time:	15. 06. 2019 19:29

#	Modifying user name:	WinNT
#	Modification time:	15. 06. 2019 19:29

#	Program:	/corina/corina34_cracker 3.40 0067  02.08.2006

@<TRIPOS>MOLECULE
ASD01812676
  60   64    0    0    0
SMALL
NO_CHARGES


@<TRIPOS>ATOM
   1 O1            -0.0163     1.3523     0.0095 O.3     
   2 C2             0.0154     0.0105     0.2064 C.ar    
   3 C3             1.2301    -0.6543     0.2816 C.ar    
   4 C4             1.2645    -2.0203     0.4815 C.ar    
   5 C5             0.0854    -2.7383     0.6087 C.ar    
   6 C6            -1.1260    -2.0932     0.5363 C.ar    
   7 C7            -1.1795    -0.7102     0.3406 C.ar    
   8 C8            -2.5555    -2.5651     0.6316 C.3     
   9 N9            -3.3925    -1.3704     0.4719 N.am    
  10 C10           -2.5934    -0.3011     0.3132 C.2     
  11 C11           -4.8571    -1.3452     0.4949 C.3     
  12 O12           -2.9833     0.8395     0.1542 O.2     
  13 C13           -5.3336    -1.1307     1.9084 C.ar    
  14 C14           -5.5339     0.1538     2.3807 C.ar    
  15 C15           -5.9707     0.3559     3.6743 C.ar    
  16 C16           -6.2098    -0.7367     4.5047 C.ar    
  17 C17           -6.0066    -2.0283     4.0240 C.ar    
  18 C18           -5.5746    -2.2193     2.7271 C.ar    
  19 C19           -6.6793    -0.5254     5.8973 C.2     
  20 C20           -6.9258     0.7172     6.5130 C.2     
  21 N21           -7.3249     0.4918     7.7367 N.2     
  22 N22           -7.3489    -0.8919     7.9491 N.pl3   
  23 C23           -6.9561    -1.4997     6.8114 C.2     
  24 C24           -7.7387    -1.5636     9.1913 C.3     
  25 C25            1.2331     2.0021    -0.2332 C.3     
  26 C26            0.9962     3.2735    -1.0069 C.ar    
  27 C27            1.8926     2.3298     1.0817 C.2     
  28 O28            1.3485     2.0369     2.1200 O.2     
  29 O29            3.0844     2.9470     1.0993 O.3     
  30 C30            3.6602     3.2314     2.4015 C.3     
  31 C31            1.8625     3.6372    -2.0208 C.ar    
  32 C32            1.6453     4.8033    -2.7305 C.ar    
  33 C33            0.5613     5.6056    -2.4266 C.ar    
  34 C34           -0.3056     5.2415    -1.4133 C.ar    
  35 C35           -0.0907     4.0730    -0.7065 C.ar    
  36 H36            2.1527    -0.1016     0.1831 H       
  37 H37            2.2141    -2.5315     0.5387 H       
  38 H38            0.1188    -3.8065     0.7645 H       
  39 H39           -2.7678    -3.2803    -0.1631 H       
  40 H40           -2.7355    -3.0213     1.6050 H       
  41 H41           -5.2165    -0.5330    -0.1369 H       
  42 H42           -5.2427    -2.2939     0.1215 H       
  43 H43           -5.3478     1.0002     1.7362 H       
  44 H44           -6.1264     1.3593     4.0422 H       
  45 H45           -6.1906    -2.8788     4.6637 H       
  46 H46           -5.4206    -3.2203     2.3521 H       
  47 H47           -6.8056     1.6873     6.0538 H       
  48 H48           -6.8730    -2.5648     6.6532 H       
  49 H49           -8.8101    -1.7634     9.1756 H       
  50 H50           -7.1950    -2.5040     9.2819 H       
  51 H51           -7.5009    -0.9232    10.0407 H       
  52 H52            1.8804     1.3412    -0.8096 H       
  53 H53            4.6208     3.7303     2.2729 H       
  54 H54            2.9868     3.8789     2.9630 H       
  55 H55            3.8055     2.2985     2.9462 H       
  56 H56            2.7094     3.0104    -2.2582 H       
  57 H57            2.3225     5.0879    -3.5221 H       
  58 H58            0.3920     6.5171    -2.9805 H       
  59 H59           -1.1522     5.8684    -1.1756 H       
  60 H60           -0.7701     3.7866     0.0828 H       
@<TRIPOS>BOND
   1    1    2 1
   2    1   25 1
   3    2    3 ar
   4    2    7 ar
   5    3    4 ar
   6    3   36 1
   7    4    5 ar
   8    4   37 1
   9    5    6 ar
  10    5   38 1
  11    6    8 1
  12    6    7 ar
  13    7   10 1
  14    8    9 1
  15    8   39 1
  16    8   40 1
  17    9   10 am
  18    9   11 1
  19   10   12 2
  20   11   13 1
  21   11   41 1
  22   11   42 1
  23   13   14 ar
  24   13   18 ar
  25   14   15 ar
  26   14   43 1
  27   15   16 ar
  28   15   44 1
  29   16   17 ar
  30   16   19 1
  31   17   18 ar
  32   17   45 1
  33   18   46 1
  34   19   20 1
  35   19   23 2
  36   20   21 2
  37   20   47 1
  38   21   22 1
  39   22   23 1
  40   22   24 1
  41   23   48 1
  42   24   49 1
  43   24   50 1
  44   24   51 1
  45   25   26 1
  46   25   27 1
  47   25   52 1
  48   26   31 ar
  49   26   35 ar
  50   27   28 2
  51   27   29 1
  52   29   30 1
  53   30   53 1
  54   30   54 1
  55   30   55 1
  56   31   32 ar
  57   31   56 1
  58   32   33 ar
  59   32   57 1
  60   33   34 ar
  61   33   58 1
  62   34   35 ar
  63   34   59 1
  64   35   60 1

#	End of record

