#	Name: ASD06590031
#	Creating user name:	WinNT
#	Creation time:	15. 06. 2019 21:06

#	Modifying user name:	WinNT
#	Modification time:	15. 06. 2019 21:06

#	Program:	/corina/corina34_cracker 3.40 0067  02.08.2006

@<TRIPOS>MOLECULE
ASD06590031
 328  327    0    0    0
SMALL
NO_CHARGES


@<TRIPOS>ATOM
   1 C1            -1.4618    -7.3714    -0.0282 C.2     
   2 O2            -1.8376    -8.4819     0.2826 O.2     
   3 N3             0.7747    -8.0974     0.5847 N.3     
   4 C4             0.0118    -7.0824    -0.1541 C.3     
   5 C5             0.4140    -7.1161    -1.6299 C.3     
   6 C6             1.8580    -6.7072    -1.7665 C.2     
   7 O7             2.5018    -6.4175    -0.7810 O.2     
   8 N8             2.4337    -6.6636    -2.9844 N.am    
   9 C9            -4.5690    -5.7155    -1.0115 C.2     
  10 O10           -3.9815    -4.8749    -1.6590 O.2     
  11 N11           -2.3623    -6.3974    -0.2665 N.am    
  12 C12           -3.7951    -6.6799    -0.1501 C.3     
  13 C13           -4.2292    -6.5222     1.3086 C.3     
  14 C14           -3.9525    -5.0903     1.7710 C.3     
  15 C15           -4.4994    -4.8969     3.1868 C.3     
  16 C16           -3.4435    -7.5014     2.1832 C.3     
  17 C17           -8.0639    -4.7009    -1.3566 C.2     
  18 O18           -8.4551    -5.4405    -0.4786 O.2     
  19 N19           -5.9139    -5.7871    -1.0625 N.am    
  20 C20           -6.6661    -4.8496    -1.8999 C.3     
  21 C21           -6.7299    -5.3834    -3.3324 C.3     
  22 C22           -5.3221    -5.4063    -3.9312 C.3     
  23 C23           -7.3033    -6.8018    -3.3230 C.3     
  24 C24          -11.1073    -2.9924    -2.4437 C.2     
  25 O25          -10.5964    -2.6224    -3.4795 O.2     
  26 N26           -8.8792    -3.7459    -1.8463 N.am    
  27 C27          -10.2675    -3.6615    -1.3863 C.3     
  28 C28          -10.3279    -2.8443    -0.0943 C.3     
  29 C29           -9.5786    -3.5865     1.0142 C.3     
  30 C30           -9.6390    -2.7692     2.3062 C.3     
  31 N31           -8.9216    -3.4799     3.3675 N.pl3   
  32 C32           -8.8409    -2.9346     4.6270 C.2     
  33 N33           -9.4028    -1.7853     4.8768 N.2     
  34 N34           -8.1677    -3.6015     5.6230 N.pl3   
  35 C35          -14.4484    -1.5200    -2.6227 C.2     
  36 O36          -14.6101    -1.6030    -1.4236 O.2     
  37 N37          -12.4261    -2.8051    -2.2382 N.am    
  38 C38          -13.2424    -2.1545    -3.2662 C.3     
  39 C39          -13.6991    -3.1962    -4.2895 C.3     
  40 C40          -12.4747    -3.8404    -4.9427 C.3     
  41 C41          -14.5277    -4.2730    -3.5861 C.3     
  42 C42          -17.6341    -0.1087    -3.6882 C.2     
  43 O43          -17.4619    -0.2723    -4.8776 O.2     
  44 N44          -15.3473    -0.8603    -3.3799 N.am    
  45 C45          -16.4602    -0.1506    -2.7442 C.3     
  46 C46          -16.0273     1.2771    -2.4050 C.3     
  47 C47          -17.1272     1.9643    -1.5933 C.3     
  48 C48          -17.2510     1.2874    -0.2268 C.3     
  49 C49          -16.7726     3.4402    -1.4010 C.3     
  50 C50          -21.1488     0.8868    -3.5531 C.2     
  51 O51          -20.9990     1.4777    -2.5046 O.2     
  52 N52          -18.8752     0.1104    -3.2109 N.am    
  53 C53          -20.0283     0.0486    -4.1125 C.3     
  54 C54          -20.4944    -1.4026    -4.2456 C.3     
  55 C55          -24.7248     1.2857    -4.1986 C.2     
  56 O56          -24.7460     0.4552    -5.0822 O.2     
  57 N57          -22.3175     0.9798    -4.2181 N.am    
  58 C58          -23.4068     1.7947    -3.6743 C.3     
  59 C59          -23.2162     3.2514    -4.1016 C.3     
  60 C60          -21.8561     3.7527    -3.6121 C.3     
  61 O61          -23.2722     3.3411    -5.5266 O.3     
  62 C62          -28.2564     2.1869    -3.9179 C.2     
  63 O63          -27.9983     3.2850    -3.4726 O.2     
  64 N64          -25.8800     1.7535    -3.6856 N.am    
  65 C65          -27.1572     1.1737    -4.1086 C.3     
  66 C66          -27.4569    -0.0685    -3.2671 C.3     
  67 C67          -26.4086    -1.1449    -3.5554 C.3     
  68 C68          -26.7083    -2.3871    -2.7140 C.3     
  69 C69          -25.6600    -3.4635    -3.0022 C.3     
  70 N70          -25.9478    -4.6562    -2.1943 N.3     
  71 C71          -31.9116     2.1442    -3.8883 C.2     
  72 O72          -31.9533     0.9325    -3.9197 O.2     
  73 N73          -29.5262     1.8725    -4.2423 N.am    
  74 C74          -30.5948     2.8574    -4.0570 C.3     
  75 C75          -30.6634     3.7720    -5.2816 C.3     
  76 C76          -29.3733     4.5884    -5.3814 C.3     
  77 C77          -29.3883     5.4102    -6.6719 C.3     
  78 C78          -29.2708     5.5290    -4.1790 C.3     
  79 C79          -35.4463     3.0738    -3.9543 C.2     
  80 O80          -35.2018     4.1943    -4.3489 O.2     
  81 N81          -33.0428     2.8529    -3.7024 N.am    
  82 C82          -34.3229     2.1595    -3.5384 C.3     
  83 C83          -34.5041     1.7635    -2.0717 C.3     
  84 C84          -33.4361     0.7386    -1.6844 C.3     
  85 C85          -33.6173     0.3426    -0.2177 C.3     
  86 N86          -32.5947    -0.6387     0.1530 N.pl3   
  87 C87          -32.5583    -1.1441     1.4311 C.2     
  88 N88          -31.6485    -2.0172     1.7610 N.2     
  89 N89          -33.4816    -0.7285     2.3612 N.pl3   
  90 C90          -39.0833     3.1241    -3.5899 C.2     
  91 O91          -39.0758     2.1815    -2.8268 O.2     
  92 N92          -36.7228     2.6464    -3.8878 N.am    
  93 C93          -37.8149     3.5352    -4.2921 C.3     
  94 C94          -38.0162     3.4399    -5.8058 C.3     
  95 C95          -36.7734     3.9748    -6.5203 C.3     
  96 C96          -36.9716     3.8809    -8.0112 C.2     
  97 O97          -38.0012     3.4322    -8.4567 O.2     
  98 O98          -36.0044     4.2957    -8.8443 O.3     
  99 C99          -42.6490     3.8510    -3.9369 C.2     
 100 O100         -42.4834     4.4446    -4.9815 O.2     
 101 N101         -40.2261     3.8040    -3.8098 N.am    
 102 C102         -41.4591     3.4044    -3.1271 C.3     
 103 C103         -41.5102     4.0558    -1.7437 C.3     
 104 C104         -40.2406     3.7025    -0.9664 C.3     
 105 O105         -41.6009     5.4746    -1.8883 O.3     
 106 C106         -45.4819     5.3425    -4.0564 C.2     
 107 O107         -44.8838     6.0064    -3.2363 O.2     
 108 N108         -43.8973     3.5907    -3.5004 N.am    
 109 C109         -45.0512     3.9262    -4.3383 C.3     
 110 C110         -46.2042     2.9705    -4.0248 C.3     
 111 C111         -45.8275     1.5735    -4.4461 C.2     
 112 O112         -44.7131     1.3471    -4.8680 O.2     
 113 N113         -46.7288     0.5758    -4.3541 N.am    
 114 C114         -48.4092     7.4075    -4.7842 C.2     
 115 O115         -49.0374     6.4637    -5.2149 O.2     
 116 N116         -46.5316     5.8715    -4.7157 N.am    
 117 C117         -46.9503     7.2484    -4.4416 C.3     
 118 C118         -46.1191     8.2127    -5.2902 C.3     
 119 C119         -50.8648    10.1696    -4.6632 C.2     
 120 O120         -50.0657    10.9710    -4.2270 O.2     
 121 N121         -49.0159     8.5986    -4.6120 N.am    
 122 C122         -50.4341     8.7532    -4.9451 C.3     
 123 C123         -52.9359    12.0527    -3.1691 C.2     
 124 O124         -52.8640    11.0936    -2.4377 O.2     
 125 N125         -52.1379    10.5458    -4.8958 N.am    
 126 C126         -52.5566    11.9227    -4.6218 C.3     
 127 C127         -53.7617    12.2730    -5.4969 C.3     
 128 C128         -53.3435    12.2625    -6.9686 C.3     
 129 C129         -54.5486    12.6128    -7.8437 C.3     
 130 N130         -54.1482    12.6027    -9.2529 N.pl3   
 131 C131         -55.0701    12.8900   -10.2315 C.2     
 132 N132         -56.3003    13.1715    -9.9056 N.2     
 133 N133         -54.6944    12.8805   -11.5540 N.pl3   
 134 O134         -53.3538    13.2339    -2.6877 O.3     
 135 C135           3.7251    -6.2979    -3.1065 C.2     
 136 O136           4.3689    -6.0082    -2.1211 O.2     
 137 C137          19.1506    -2.8122   -13.1610 C.3     
 138 C138          18.4971    -2.8617   -11.7785 C.3     
 139 C139          17.0389    -3.3032   -11.9192 C.3     
 140 C140          16.3854    -3.3527   -10.5367 C.3     
 141 C141          14.9272    -3.7942   -10.6774 C.3     
 142 C142          14.2737    -3.8437    -9.2949 C.3     
 143 C143          12.8156    -4.2852    -9.4356 C.3     
 144 C144          12.1620    -4.3347    -8.0531 C.3     
 145 C145          10.7039    -4.7762    -8.1937 C.3     
 146 C146          10.0503    -4.8256    -6.8112 C.3     
 147 C147           8.5922    -5.2672    -6.9519 C.3     
 148 C148           7.9387    -5.3166    -5.5694 C.3     
 149 C149           6.4805    -5.7582    -5.7101 C.3     
 150 C150           5.8270    -5.8076    -4.3276 C.3     
 151 C151           4.3688    -6.2492    -4.4683 C.3     
 152 H152           0.5747    -8.0521     1.5726 H       
 153 H153           0.5940    -9.0211     0.2211 H       
 154 H154           0.2251    -6.0961     0.2582 H       
 155 H155           0.2840    -8.1260    -2.0189 H       
 156 H156          -0.2139    -6.4260    -2.1934 H       
 157 H157           1.9186    -6.8954    -3.7729 H       
 158 H158          -2.0618    -5.5092    -0.5151 H       
 159 H159          -3.9922    -7.7001    -0.4795 H       
 160 H160          -5.2952    -6.7325     1.3952 H       
 161 H161          -2.8777    -4.9090     1.7688 H       
 162 H162          -4.4407    -4.3891     1.0941 H       
 163 H163          -4.0113    -5.5980     3.8637 H       
 164 H164          -4.3023    -3.8767     3.5162 H       
 165 H165          -5.5742    -5.0782     3.1890 H       
 166 H166          -2.3775    -7.2911     2.0965 H       
 167 H167          -3.7527    -7.3890     3.2223 H       
 168 H168          -3.6406    -8.5215     1.8537 H       
 169 H169          -6.3837    -6.4594    -0.5446 H       
 170 H170          -6.1694    -3.8794    -1.8955 H       
 171 H171          -7.3697    -4.7367    -3.9329 H       
 172 H172          -4.7134    -6.1383    -3.4004 H       
 173 H173          -5.3801    -5.6778    -4.9853 H       
 174 H174          -4.8700    -4.4192    -3.8345 H       
 175 H175          -8.3063    -6.7854    -2.8964 H       
 176 H176          -7.3488    -7.1821    -4.3435 H       
 177 H177          -6.6636    -7.4484    -2.7225 H       
 178 H178          -8.5467    -3.1145    -2.5034 H       
 179 H179         -10.6501    -4.6650    -1.1997 H       
 180 H180          -9.8643    -1.8714    -0.2577 H       
 181 H181         -11.3683    -2.7061     0.2000 H       
 182 H182         -10.0422    -4.5593     1.1776 H       
 183 H183          -8.5382    -3.7246     0.7199 H       
 184 H184          -9.1754    -1.7963     2.1427 H       
 185 H185         -10.6794    -2.6311     2.6004 H       
 186 H186          -8.5035    -4.3352     3.1817 H       
 187 H187          -9.3459    -1.4005     5.7654 H       
 188 H188          -7.7495    -4.4568     5.4371 H       
 189 H189          -8.1108    -3.2167     6.5116 H       
 190 H190         -12.8347    -3.1010    -1.4098 H       
 191 H191         -12.6521    -1.3874    -3.7673 H       
 192 H192         -14.3065    -2.7122    -5.0543 H       
 193 H193         -11.8673    -4.3244    -4.1779 H       
 194 H194         -12.8001    -4.5825    -5.6718 H       
 195 H195         -11.8844    -3.0732    -5.4438 H       
 196 H196         -15.4000    -3.8141    -3.1207 H       
 197 H197         -14.8531    -5.0151    -4.3152 H       
 198 H198         -13.9203    -4.7570    -2.8213 H       
 199 H199         -15.2574    -0.8554    -4.3457 H       
 200 H200         -16.7475    -0.6700    -1.8300 H       
 201 H201         -15.1079     1.2488    -1.8202 H       
 202 H202         -15.8547     1.8331    -3.3266 H       
 203 H203         -18.0751     1.8847    -2.1254 H       
 204 H204         -16.2790     1.2839     0.2664 H       
 205 H205         -17.9674     1.8344     0.3861 H       
 206 H206         -17.5949     0.2616    -0.3593 H       
 207 H207         -16.6844     3.9225    -2.3745 H       
 208 H208         -17.5562     3.9298    -0.8227 H       
 209 H209         -15.8247     3.5198    -0.8688 H       
 210 H210         -19.0051     0.3091    -2.2704 H       
 211 H211         -19.7437     0.4302    -5.0930 H       
 212 H212         -21.3523    -1.4486    -4.9164 H       
 213 H213         -19.6839    -2.0089    -4.6501 H       
 214 H214         -20.7790    -1.7842    -3.2650 H       
 215 H215         -22.4373     0.5073    -5.0567 H       
 216 H216         -23.3997     1.7313    -2.5862 H       
 217 H217         -24.0067     3.8637    -3.6676 H       
 218 H218         -21.0626     3.2021    -4.1174 H       
 219 H219         -21.7591     4.8154    -3.8342 H       
 220 H220         -21.7775     3.5978    -2.5360 H       
 221 H221         -24.1084     3.0392    -5.9072 H       
 222 H222         -25.8657     2.4740    -3.0363 H       
 223 H223         -27.0988     0.8945    -5.1606 H       
 224 H224         -27.4275     0.1934    -2.2095 H       
 225 H225         -28.4468    -0.4484    -3.5200 H       
 226 H226         -26.4380    -1.4067    -4.6131 H       
 227 H227         -25.4187    -0.7650    -3.3025 H       
 228 H228         -26.6789    -2.1253    -1.6563 H       
 229 H229         -27.6982    -2.7670    -2.9668 H       
 230 H230         -25.6894    -3.7253    -4.0599 H       
 231 H231         -24.6701    -3.0836    -2.7494 H       
 232 H232         -25.2688    -5.3823    -2.3669 H       
 233 H233         -25.9900    -4.4265    -1.2128 H       
 234 H234         -29.7326     0.9942    -4.5985 H       
 235 H235         -30.3885     3.4545    -3.1687 H       
 236 H236         -30.7810     3.1671    -6.1807 H       
 237 H237         -31.5138     4.4468    -5.1840 H       
 238 H238         -28.5166     3.9146    -5.3896 H       
 239 H239         -30.2450     6.0840    -6.6636 H       
 240 H240         -28.4692     5.9918    -6.7430 H       
 241 H241         -29.4613     4.7401    -7.5285 H       
 242 H242         -30.1275     6.2029    -4.1707 H       
 243 H243         -29.2601     4.9436    -3.2596 H       
 244 H244         -28.3517     6.1107    -4.2501 H       
 245 H245         -33.0094     3.8220    -3.6773 H       
 246 H246         -34.3336     1.2645    -4.1604 H       
 247 H247         -34.4048     2.6475    -1.4417 H       
 248 H248         -35.4934     1.3276    -1.9326 H       
 249 H249         -33.5355    -0.1453    -2.3144 H       
 250 H250         -32.4468     1.1746    -1.8235 H       
 251 H251         -33.5180     1.2265     0.4122 H       
 252 H252         -34.6066    -0.0934    -0.0787 H       
 253 H253         -31.9434    -0.9320    -0.5032 H       
 254 H254         -31.6228    -2.3738     2.6627 H       
 255 H255         -34.1586    -0.0788     2.1157 H       
 256 H256         -33.4559    -1.0851     3.2629 H       
 257 H257         -36.9183     1.7503    -3.5722 H       
 258 H258         -37.5666     4.5618    -4.0225 H       
 259 H259         -38.1766     2.3989    -6.0862 H       
 260 H260         -38.8845     4.0320    -6.0949 H       
 261 H261         -36.6130     5.0158    -6.2399 H       
 262 H262         -35.9051     3.3827    -6.2312 H       
 263 H263         -36.1773     4.2157    -9.7923 H       
 264 H264         -40.2321     4.5579    -4.4202 H       
 265 H265         -41.4795     2.3199    -3.0191 H       
 266 H266         -42.3819     3.6894    -1.2015 H       
 267 H267         -39.3689     4.0690    -1.5086 H       
 268 H268         -40.2770     4.1666     0.0192 H       
 269 H269         -40.1714     2.6203    -0.8561 H       
 270 H270         -40.8568     5.8700    -2.3626 H       
 271 H271         -44.0316     3.1812    -2.6314 H       
 272 H272         -44.7768     3.8321    -5.3890 H       
 273 H273         -46.4070     2.9848    -2.9540 H       
 274 H274         -47.0953     3.2859    -4.5676 H       
 275 H275         -47.6201     0.7569    -4.0167 H       
 276 H276         -46.4863    -0.3234    -4.6253 H       
 277 H277         -47.0099     5.3406    -5.3716 H       
 278 H278         -46.7988     7.4709    -3.3854 H       
 279 H279         -46.4306     9.2372    -5.0863 H       
 280 H280         -45.0639     8.0977    -5.0424 H       
 281 H281         -46.2706     7.9903    -6.3465 H       
 282 H282         -48.5135     9.3535    -4.2676 H       
 283 H283         -51.0263     8.0663    -4.3406 H       
 284 H284         -50.5856     8.5308    -6.0014 H       
 285 H285         -52.7770     9.9049    -5.2447 H       
 286 H286         -51.7352    12.6035    -4.8451 H       
 287 H287         -54.5516    11.5389    -5.3383 H       
 288 H288         -54.1282    13.2644    -5.2304 H       
 289 H289         -52.5536    12.9966    -7.1272 H       
 290 H290         -52.9770    11.2711    -7.2350 H       
 291 H291         -55.3385    11.8787    -7.6852 H       
 292 H292         -54.9152    13.6042    -7.5773 H       
 293 H293         -53.2327    12.3932    -9.4955 H       
 294 H294         -56.9508    13.3742   -10.5961 H       
 295 H295         -53.7788    12.6711   -11.7966 H       
 296 H296         -55.3448    13.0833   -12.2445 H       
 297 H297         -53.5860    13.2683    -1.7496 H       
 298 H298          20.1894    -2.4976   -13.0608 H       
 299 H299          19.1129    -3.8018   -13.6164 H       
 300 H300          18.6150    -2.1018   -13.7909 H       
 301 H301          19.0326    -3.5720   -11.1487 H       
 302 H302          18.5347    -1.8720   -11.3232 H       
 303 H303          16.5034    -2.5928   -12.5491 H       
 304 H304          17.0013    -4.2928   -12.3745 H       
 305 H305          16.9209    -4.0630    -9.9069 H       
 306 H306          16.4230    -2.3630   -10.0814 H       
 307 H307          14.3917    -3.0838   -11.3072 H       
 308 H308          14.8896    -4.7838   -11.1327 H       
 309 H309          14.8093    -4.5540    -8.6650 H       
 310 H310          14.3114    -2.8540    -8.8396 H       
 311 H311          12.2800    -3.5748   -10.0654 H       
 312 H312          12.7779    -5.2748    -9.8909 H       
 313 H313          12.6976    -5.0450    -7.4232 H       
 314 H314          12.1997    -3.3450    -7.5977 H       
 315 H315          10.1683    -4.0658    -8.8236 H       
 316 H316          10.6662    -5.7658    -8.6491 H       
 317 H317          10.5859    -5.5360    -6.1814 H       
 318 H318          10.0880    -3.8360    -6.3559 H       
 319 H319           8.0566    -4.5568    -7.5818 H       
 320 H320           8.5545    -6.2568    -7.4072 H       
 321 H321           8.4742    -6.0270    -4.9396 H       
 322 H322           7.9763    -4.3270    -5.1141 H       
 323 H323           5.9450    -5.0478    -6.3399 H       
 324 H324           6.4429    -6.7478    -6.1654 H       
 325 H325           6.3625    -6.5180    -3.6978 H       
 326 H326           5.8646    -4.8180    -3.8723 H       
 327 H327           4.3312    -7.2388    -4.9236 H       
 328 H328           3.8333    -5.5388    -5.0981 H       
@<TRIPOS>BOND
   1    1    2 2
   2    1    4 1
   3    1   11 am
   4    3    4 1
   5    3  152 1
   6    3  153 1
   7    4    5 1
   8    4  154 1
   9    5    6 1
  10    5  155 1
  11    5  156 1
  12    6    7 2
  13    6    8 am
  14    8  135 am
  15    8  157 1
  16    9   10 2
  17    9   12 1
  18    9   19 am
  19   11   12 1
  20   11  158 1
  21   12   13 1
  22   12  159 1
  23   13   14 1
  24   13   16 1
  25   13  160 1
  26   14   15 1
  27   14  161 1
  28   14  162 1
  29   15  163 1
  30   15  164 1
  31   15  165 1
  32   16  166 1
  33   16  167 1
  34   16  168 1
  35   17   18 2
  36   17   20 1
  37   17   26 am
  38   19   20 1
  39   19  169 1
  40   20   21 1
  41   20  170 1
  42   21   22 1
  43   21   23 1
  44   21  171 1
  45   22  172 1
  46   22  173 1
  47   22  174 1
  48   23  175 1
  49   23  176 1
  50   23  177 1
  51   24   25 2
  52   24   27 1
  53   24   37 am
  54   26   27 1
  55   26  178 1
  56   27   28 1
  57   27  179 1
  58   28   29 1
  59   28  180 1
  60   28  181 1
  61   29   30 1
  62   29  182 1
  63   29  183 1
  64   30   31 1
  65   30  184 1
  66   30  185 1
  67   31   32 1
  68   31  186 1
  69   32   33 2
  70   32   34 1
  71   33  187 1
  72   34  188 1
  73   34  189 1
  74   35   36 2
  75   35   38 1
  76   35   44 am
  77   37   38 1
  78   37  190 1
  79   38   39 1
  80   38  191 1
  81   39   40 1
  82   39   41 1
  83   39  192 1
  84   40  193 1
  85   40  194 1
  86   40  195 1
  87   41  196 1
  88   41  197 1
  89   41  198 1
  90   42   43 2
  91   42   45 1
  92   42   52 am
  93   44   45 1
  94   44  199 1
  95   45   46 1
  96   45  200 1
  97   46   47 1
  98   46  201 1
  99   46  202 1
 100   47   48 1
 101   47   49 1
 102   47  203 1
 103   48  204 1
 104   48  205 1
 105   48  206 1
 106   49  207 1
 107   49  208 1
 108   49  209 1
 109   50   51 2
 110   50   53 1
 111   50   57 am
 112   52   53 1
 113   52  210 1
 114   53   54 1
 115   53  211 1
 116   54  212 1
 117   54  213 1
 118   54  214 1
 119   55   56 2
 120   55   58 1
 121   55   64 am
 122   57   58 1
 123   57  215 1
 124   58   59 1
 125   58  216 1
 126   59   60 1
 127   59   61 1
 128   59  217 1
 129   60  218 1
 130   60  219 1
 131   60  220 1
 132   61  221 1
 133   62   63 2
 134   62   65 1
 135   62   73 am
 136   64   65 1
 137   64  222 1
 138   65   66 1
 139   65  223 1
 140   66   67 1
 141   66  224 1
 142   66  225 1
 143   67   68 1
 144   67  226 1
 145   67  227 1
 146   68   69 1
 147   68  228 1
 148   68  229 1
 149   69   70 1
 150   69  230 1
 151   69  231 1
 152   70  232 1
 153   70  233 1
 154   71   72 2
 155   71   74 1
 156   71   81 am
 157   73   74 1
 158   73  234 1
 159   74   75 1
 160   74  235 1
 161   75   76 1
 162   75  236 1
 163   75  237 1
 164   76   77 1
 165   76   78 1
 166   76  238 1
 167   77  239 1
 168   77  240 1
 169   77  241 1
 170   78  242 1
 171   78  243 1
 172   78  244 1
 173   79   80 2
 174   79   82 1
 175   79   92 am
 176   81   82 1
 177   81  245 1
 178   82   83 1
 179   82  246 1
 180   83   84 1
 181   83  247 1
 182   83  248 1
 183   84   85 1
 184   84  249 1
 185   84  250 1
 186   85   86 1
 187   85  251 1
 188   85  252 1
 189   86   87 1
 190   86  253 1
 191   87   88 2
 192   87   89 1
 193   88  254 1
 194   89  255 1
 195   89  256 1
 196   90   91 2
 197   90   93 1
 198   90  101 am
 199   92   93 1
 200   92  257 1
 201   93   94 1
 202   93  258 1
 203   94   95 1
 204   94  259 1
 205   94  260 1
 206   95   96 1
 207   95  261 1
 208   95  262 1
 209   96   97 2
 210   96   98 1
 211   98  263 1
 212   99  100 2
 213   99  102 1
 214   99  108 am
 215  101  102 1
 216  101  264 1
 217  102  103 1
 218  102  265 1
 219  103  104 1
 220  103  105 1
 221  103  266 1
 222  104  267 1
 223  104  268 1
 224  104  269 1
 225  105  270 1
 226  106  107 2
 227  106  109 1
 228  106  116 am
 229  108  109 1
 230  108  271 1
 231  109  110 1
 232  109  272 1
 233  110  111 1
 234  110  273 1
 235  110  274 1
 236  111  112 2
 237  111  113 am
 238  113  275 1
 239  113  276 1
 240  114  115 2
 241  114  117 1
 242  114  121 am
 243  116  117 1
 244  116  277 1
 245  117  118 1
 246  117  278 1
 247  118  279 1
 248  118  280 1
 249  118  281 1
 250  119  120 2
 251  119  122 1
 252  119  125 am
 253  121  122 1
 254  121  282 1
 255  122  283 1
 256  122  284 1
 257  123  124 2
 258  123  126 1
 259  123  134 1
 260  125  126 1
 261  125  285 1
 262  126  127 1
 263  126  286 1
 264  127  128 1
 265  127  287 1
 266  127  288 1
 267  128  129 1
 268  128  289 1
 269  128  290 1
 270  129  130 1
 271  129  291 1
 272  129  292 1
 273  130  131 1
 274  130  293 1
 275  131  132 2
 276  131  133 1
 277  132  294 1
 278  133  295 1
 279  133  296 1
 280  134  297 1
 281  135  136 2
 282  135  151 1
 283  137  138 1
 284  137  298 1
 285  137  299 1
 286  137  300 1
 287  138  139 1
 288  138  301 1
 289  138  302 1
 290  139  140 1
 291  139  303 1
 292  139  304 1
 293  140  141 1
 294  140  305 1
 295  140  306 1
 296  141  142 1
 297  141  307 1
 298  141  308 1
 299  142  143 1
 300  142  309 1
 301  142  310 1
 302  143  144 1
 303  143  311 1
 304  143  312 1
 305  144  145 1
 306  144  313 1
 307  144  314 1
 308  145  146 1
 309  145  315 1
 310  145  316 1
 311  146  147 1
 312  146  317 1
 313  146  318 1
 314  147  148 1
 315  147  319 1
 316  147  320 1
 317  148  149 1
 318  148  321 1
 319  148  322 1
 320  149  150 1
 321  149  323 1
 322  149  324 1
 323  150  151 1
 324  150  325 1
 325  150  326 1
 326  151  327 1
 327  151  328 1

#	End of record

