#	Name: ASD01001046
#	Creating user name:	WinNT
#	Creation time:	15. 06. 2019 18:55

#	Modifying user name:	WinNT
#	Modification time:	15. 06. 2019 18:55

#	Program:	/corina/corina34_cracker 3.40 0067  02.08.2006

@<TRIPOS>MOLECULE
ASD01001046
  48   50    0    0    0
SMALL
NO_CHARGES


@<TRIPOS>ATOM
   1 C1             0.1497     0.8251    -0.2481 C.ar    
   2 C2             0.3507    -0.4073    -0.8381 C.ar    
   3 C3             1.2290     1.6411     0.0373 C.ar    
   4 C4             1.6393    -0.8270    -1.1449 C.ar    
   5 C5             2.5132     1.2266    -0.2666 C.ar    
   6 C6             2.7217    -0.0041    -0.8565 C.ar    
   7 C7             3.6861     2.1196     0.0464 C.3     
   8 C8             3.2523     3.5612    -0.0223 C.ar    
   9 C9             4.1948     1.8135     1.4315 C.ar    
  10 S10            5.0076     1.8276    -1.1614 S.3     
  11 C11            3.4523     4.3955     1.0616 C.ar    
  12 C12            2.6595     4.0506    -1.1712 C.ar    
  13 C13            3.3558     1.9496     2.5217 C.ar    
  14 C14            5.4988     1.3913     1.6113 C.ar    
  15 C15            6.2329     3.0973    -0.7405 C.3     
  16 C16            3.0596     5.7193     0.9965 C.ar    
  17 C17            2.2616     5.3730    -1.2342 C.ar    
  18 C18            3.8208     1.6634     3.7917 C.ar    
  19 C19            5.9654     1.1106     2.8819 C.ar    
  20 C20            7.4096     3.0134    -1.7147 C.3     
  21 C21            2.4672     6.2089    -0.1525 C.ar    
  22 C22            5.1246     1.2408     3.9714 C.ar    
  23 N23            8.4019     4.0416    -1.3739 N.3     
  24 H24            7.8694     2.0275    -1.6451 H       
  25 S25            1.9007    -2.3988    -1.8971 S.3     
  26 C26            0.2188    -3.0591    -2.0574 C.3     
  27 H27           -0.8519     1.1538    -0.0135 H       
  28 H28           -0.4927    -1.0443    -1.0605 H       
  29 H29            1.0688     2.6045     0.4983 H       
  30 H30            3.7247    -0.3272    -1.0932 H       
  31 H31            3.9151     4.0131     1.9593 H       
  32 H32            2.5076     3.4000    -2.0197 H       
  33 H33            2.3372     2.2798     2.3813 H       
  34 H34            6.1528     1.2804     0.7591 H       
  35 H35            5.7732     4.0831    -0.8101 H       
  36 H36            6.5906     2.9342     0.2762 H       
  37 H37            3.2152     6.3710     1.8436 H       
  38 H38            1.7988     5.7554    -2.1319 H       
  39 H39            3.1656     1.7704     4.6435 H       
  40 H40            6.9841     0.7804     3.0223 H       
  41 H41            7.0519     3.1765    -2.7314 H       
  42 H42            2.1600     7.2430    -0.2032 H       
  43 H43            5.4892     1.0215     4.9641 H       
  44 H44            8.7015     3.9511    -0.4146 H       
  45 H45            9.1896     4.0067    -2.0035 H       
  46 H46           -0.2364    -3.1377    -1.0701 H       
  47 H47           -0.3762    -2.3907    -2.6797 H       
  48 H48            0.2583    -4.0459    -2.5188 H       
@<TRIPOS>BOND
   1    1    2 ar
   2    1    3 ar
   3    1   27 1
   4    2    4 ar
   5    2   28 1
   6    3    5 ar
   7    3   29 1
   8    4    6 ar
   9    4   25 1
  10    5    6 ar
  11    5    7 1
  12    6   30 1
  13    7   10 1
  14    7    8 1
  15    7    9 1
  16    8   12 ar
  17    8   11 ar
  18    9   14 ar
  19    9   13 ar
  20   10   15 1
  21   11   16 ar
  22   11   31 1
  23   12   17 ar
  24   12   32 1
  25   13   18 ar
  26   13   33 1
  27   14   19 ar
  28   14   34 1
  29   15   20 1
  30   15   35 1
  31   15   36 1
  32   16   21 ar
  33   16   37 1
  34   17   21 ar
  35   17   38 1
  36   18   22 ar
  37   18   39 1
  38   19   22 ar
  39   19   40 1
  40   20   23 1
  41   20   24 1
  42   20   41 1
  43   21   42 1
  44   22   43 1
  45   23   44 1
  46   23   45 1
  47   25   26 1
  48   26   46 1
  49   26   47 1
  50   26   48 1

#	End of record

