#	Name: ASD04550061
#	Creating user name:	WinNT
#	Creation time:	15. 06. 2019 20:49

#	Modifying user name:	WinNT
#	Modification time:	15. 06. 2019 20:49

#	Program:	/corina/corina34_cracker 3.40 0067  02.08.2006

@<TRIPOS>MOLECULE
ASD04550061
  42   43    0    0    0
SMALL
NO_CHARGES


@<TRIPOS>ATOM
   1 C1             0.2045     1.9112    -0.8663 C.ar    
   2 C2             0.1416     0.5295    -0.9745 C.ar    
   3 C3             1.3018    -0.2250    -0.8781 C.ar    
   4 C4             2.5164     0.4009    -0.6748 C.ar    
   5 C5             2.5764     1.7780    -0.5669 C.ar    
   6 C6             1.4216     2.5323    -0.6630 C.ar    
   7 C7             3.9026     2.4581    -0.3441 C.3     
   8 C8             4.1834     3.4195    -1.5007 C.3     
   9 O9            -1.0546    -0.0838    -1.1740 O.3     
  10 S10           -1.4211    -0.2637    -2.6403 S.o2    
  11 O11           -2.7836    -0.6664    -2.6141 O.2     
  12 O12           -1.0299     0.9580    -3.2517 O.2     
  13 C13            3.8611     3.2282     0.9506 C.2     
  14 O14            2.8537     3.2252     1.6259 O.2     
  15 N15            4.9434     3.9204     1.3580 N.am    
  16 S16            4.8584     4.8675     2.7137 S.o2    
  17 O17            6.1242     5.5006     2.8409 O.2     
  18 C18            3.6930     6.1472     2.3838 C.ar    
  19 O19            4.2881     4.0585     3.7333 O.2     
  20 C20            2.5236     6.2227     3.1163 C.ar    
  21 C21            1.6090     7.2268     2.8575 C.ar    
  22 C22            1.8634     8.1553     1.8657 C.ar    
  23 C23            3.0326     8.0805     1.1319 C.ar    
  24 C24            3.9511     7.0801     1.3949 C.ar    
  25 Cl25           5.4198     6.9858     0.4743 Cl      
  26 C26           -0.3654    -1.6257    -3.2069 C.3     
  27 F27           -0.6409    -2.7730    -2.4552 F       
  28 F28           -0.6198    -1.8816    -4.5586 F       
  29 F29            0.9785    -1.2730    -3.0439 F       
  30 H30           -0.6967     2.5011    -0.9455 H       
  31 H31            1.2554    -1.3007    -0.9616 H       
  32 H32            3.4199    -0.1860    -0.5997 H       
  33 H33            1.4710     3.6078    -0.5784 H       
  34 H34            4.6920     1.7079    -0.2954 H       
  35 H35            5.1427     3.9114    -1.3396 H       
  36 H36            4.2135     2.8625    -2.4371 H       
  37 H37            3.3941     4.1697    -1.5494 H       
  38 H38            5.7721     3.8637     0.8571 H       
  39 H39            2.3240     5.4971     3.8909 H       
  40 H40            0.6953     7.2854     3.4302 H       
  41 H41            1.1485     8.9392     1.6637 H       
  42 H42            3.2310     8.8056     0.3565 H       
@<TRIPOS>BOND
   1    1    2 ar
   2    1    6 ar
   3    1   30 1
   4    2    3 ar
   5    2    9 1
   6    3    4 ar
   7    3   31 1
   8    4    5 ar
   9    4   32 1
  10    5    6 ar
  11    5    7 1
  12    6   33 1
  13    7    8 1
  14    7   13 1
  15    7   34 1
  16    8   35 1
  17    8   36 1
  18    8   37 1
  19    9   10 1
  20   10   11 2
  21   10   12 2
  22   10   26 1
  23   13   14 2
  24   13   15 am
  25   15   16 am
  26   15   38 1
  27   16   17 2
  28   16   18 1
  29   16   19 2
  30   18   20 ar
  31   18   24 ar
  32   20   21 ar
  33   20   39 1
  34   21   22 ar
  35   21   40 1
  36   22   23 ar
  37   22   41 1
  38   23   24 ar
  39   23   42 1
  40   24   25 1
  41   26   27 1
  42   26   28 1
  43   26   29 1

#	End of record

