#	Name: ASD05790056
#	Creating user name:	WinNT
#	Creation time:	15. 06. 2019 21:03

#	Modifying user name:	WinNT
#	Modification time:	15. 06. 2019 21:03

#	Program:	/corina/corina34_cracker 3.40 0067  02.08.2006

@<TRIPOS>MOLECULE
ASD05790056
  45   48    0    0    0
SMALL
NO_CHARGES


@<TRIPOS>ATOM
   1 C1            -0.0820     1.4901    -0.6022 C.2     
   2 C2            -0.0386     0.0134    -0.6089 C.ar    
   3 C3             1.0199    -0.6551    -1.2299 C.ar    
   4 C4             1.0533    -2.0358    -1.2320 C.ar    
   5 C5             0.0424    -2.7557    -0.6213 C.ar    
   6 C6            -1.0084    -2.0994    -0.0048 C.ar    
   7 C7            -1.0519    -0.7208     0.0101 C.ar    
   8 O8             0.8045     2.1266    -1.1378 O.2     
   9 N9            -1.1072     2.1314    -0.0072 N.am    
  10 C10           -1.0929     3.5236     0.0981 C.ar    
  11 C11           -2.2825     4.2384     0.0083 C.ar    
  12 C12           -2.2721     5.6118     0.1117 C.ar    
  13 C13           -1.0645     6.2869     0.3076 C.ar    
  14 C14            0.1287     5.5655     0.3978 C.ar    
  15 C15            0.1103     4.1918     0.2983 C.ar    
  16 O16            0.0444     8.5184     0.6068 O.3     
  17 C17           -1.0493     7.7587     0.4184 C.2     
  18 N18           -2.1022     8.5420     0.3493 N.2     
  19 C19           -1.7064     9.8120     0.4911 C.2     
  20 C20           -0.3563     9.8087     0.6540 C.2     
  21 C21            0.5085    10.9907     0.8459 C.ar    
  22 C22            0.1801    11.9516     1.8044 C.ar    
  23 C23            0.9924    13.0528     1.9788 C.ar    
  24 C24            2.1300    13.2067     1.2063 C.ar    
  25 C25            2.4610    12.2586     0.2544 C.ar    
  26 C26            1.6610    11.1494     0.0738 C.ar    
  27 C27           -2.5966    11.0278     0.4729 C.3     
  28 Cl28           2.2889     0.2474    -1.9972 Cl      
  29 H29            1.8702    -2.5544    -1.7117 H       
  30 H30            0.0731    -3.8352    -0.6261 H       
  31 H31           -1.7942    -2.6681     0.4700 H       
  32 H32           -1.8705    -0.2105     0.4957 H       
  33 H33           -1.8550     1.6259     0.3479 H       
  34 H34           -3.2155     3.7159    -0.1431 H       
  35 H35           -3.1962     6.1664     0.0412 H       
  36 H36            1.0639     6.0841     0.5488 H       
  37 H37            1.0317     3.6333     0.3717 H       
  38 H38           -0.7079    11.8331     2.4076 H       
  39 H39            0.7396    13.7968     2.7197 H       
  40 H40            2.7622    14.0709     1.3466 H       
  41 H41            3.3502    12.3850    -0.3455 H       
  42 H42            1.9231    10.4077    -0.6662 H       
  43 H43           -3.0049    11.1942     1.4698 H       
  44 H44           -2.0162    11.8986     0.1680 H       
  45 H45           -3.4127    10.8701    -0.2323 H       
@<TRIPOS>BOND
   1    1    2 1
   2    1    8 2
   3    1    9 am
   4    2    3 ar
   5    2    7 ar
   6    3    4 ar
   7    3   28 1
   8    4    5 ar
   9    4   29 1
  10    5    6 ar
  11    5   30 1
  12    6    7 ar
  13    6   31 1
  14    7   32 1
  15    9   10 1
  16    9   33 1
  17   10   11 ar
  18   10   15 ar
  19   11   12 ar
  20   11   34 1
  21   12   13 ar
  22   12   35 1
  23   13   14 ar
  24   13   17 1
  25   14   15 ar
  26   14   36 1
  27   15   37 1
  28   16   17 1
  29   16   20 1
  30   17   18 2
  31   18   19 1
  32   19   20 2
  33   19   27 1
  34   20   21 1
  35   21   22 ar
  36   21   26 ar
  37   22   23 ar
  38   22   38 1
  39   23   24 ar
  40   23   39 1
  41   24   25 ar
  42   24   40 1
  43   25   26 ar
  44   25   41 1
  45   26   42 1
  46   27   43 1
  47   27   44 1
  48   27   45 1

#	End of record

