#	Name: ASD03720013
#	Creating user name:	WinNT
#	Creation time:	15. 06. 2019 20:43

#	Modifying user name:	WinNT
#	Modification time:	15. 06. 2019 20:43

#	Program:	/corina/corina34_cracker 3.40 0067  02.08.2006

@<TRIPOS>MOLECULE
ASD03720013
  69   72    0    0    0
SMALL
NO_CHARGES


@<TRIPOS>ATOM
   1 C1             0.5069     1.5398     0.0209 C.3     
   2 C2             0.2398     0.0079     0.0068 C.3     
   3 C3             1.9952     1.6888    -0.0891 C.2     
   4 C4            -0.1273     1.9412     1.3545 C.3     
   5 C5            -1.2161    -0.0950     0.4342 C.3     
   6 C6             0.6248    -0.5105    -1.3591 C.3     
   7 C7             2.7185     2.3290     0.8295 C.2     
   8 C8             2.6209     1.0565    -1.3241 C.3     
   9 C9            -1.4492     1.1226     1.3663 C.3     
  10 C10           -2.1353    -0.0138    -0.7862 C.3     
  11 C11            2.1524    -0.3881    -1.4879 C.3     
  12 C12            4.1699     2.4435     0.6695 C.2     
  13 C13           -3.5877    -0.2041    -0.3443 C.3     
  14 C14           -1.9799     1.3553    -1.4515 C.3     
  15 C15            4.9019     3.0914     1.5992 C.2     
  16 C16           -4.4853    -0.3188    -1.5781 C.3     
  17 C17            4.2765     3.6988     2.7925 C.2     
  18 C18            6.4063     3.2262     1.4735 C.3     
  19 C19            4.9883     3.4948     4.1150 C.3     
  20 C20            3.1415     4.3927     2.7096 C.2     
  21 C21            7.0370     2.8736     2.8245 C.3     
  22 C22            6.4782     3.7878     3.9114 C.3     
  23 O23            4.8183     2.1442     4.5498 O.3     
  24 O24            8.4538     3.0432     2.7461 O.3     
  25 C25            1.1236    -0.6663     1.0580 C.3     
  26 O26           -4.5034     0.9400    -2.2986 O.3     
  27 C27           -5.7392     1.4500    -2.3648 C.2     
  28 C28           -6.7136     0.5848    -1.6882 C.2     
  29 C29           -5.9356    -0.5987    -1.1507 C.3     
  30 C30           -8.0219     0.7985    -1.5699 C.2     
  31 O31           -6.0192     2.4971    -2.9147 O.2     
  32 H32            0.0079     2.0295    -0.8154 H       
  33 H33            0.5126     1.6535     2.1887 H       
  34 H34           -0.3353     3.0109     1.3769 H       
  35 H35           -1.3871    -1.0259     0.9748 H       
  36 H36            0.3279    -1.5549    -1.4556 H       
  37 H37            0.1393     0.0859    -2.1316 H       
  38 H38            2.2343     2.7632     1.6917 H       
  39 H39            2.3330     1.6294    -2.2056 H       
  40 H40            3.7062     1.0728    -1.2250 H       
  41 H41           -1.6700     0.7826     2.3782 H       
  42 H42           -2.2702     1.7318     0.9882 H       
  43 H43           -1.8662    -0.7955    -1.4965 H       
  44 H44            2.6240    -1.0035    -0.7218 H       
  45 H45            2.4563    -0.7509    -2.4698 H       
  46 H46            4.6541     2.0093    -0.1927 H       
  47 H47           -3.6702    -1.1136     0.2508 H       
  48 H48           -3.9005     0.6514     0.2543 H       
  49 H49           -0.9791     1.4421    -1.8745 H       
  50 H50           -2.7200     1.4598    -2.2448 H       
  51 H51           -2.1299     2.1391    -0.7091 H       
  52 H52           -4.1260    -1.1164    -2.2284 H       
  53 H53            6.7735     2.5432     0.7075 H       
  54 H54            6.6620     4.2513     1.2053 H       
  55 H55            4.5788     4.1756     4.8612 H       
  56 H56            2.6563     4.5223     1.7535 H       
  57 H57            2.7070     4.8255     3.5987 H       
  58 H58            6.8093     1.8366     3.0710 H       
  59 H59            6.6057     4.8293     3.6165 H       
  60 H60            7.0135     3.6081     4.8437 H       
  61 H61            3.8956     1.8867     4.6820 H       
  62 H62            8.8799     2.4886     2.0782 H       
  63 H63            0.8073    -0.3539     2.0532 H       
  64 H64            1.0309    -1.7489     0.9704 H       
  65 H65            2.1624    -0.3766     0.8993 H       
  66 H66           -6.2934    -1.5259    -1.5983 H       
  67 H67           -6.0115    -0.6438    -0.0643 H       
  68 H68           -8.4651     1.6853    -1.9982 H       
  69 H69           -8.6403     0.0850    -1.0456 H       
@<TRIPOS>BOND
   1    1    2 1
   2    1    3 1
   3    1    4 1
   4    1   32 1
   5    2    5 1
   6    2    6 1
   7    2   25 1
   8    3    7 2
   9    3    8 1
  10    4    9 1
  11    4   33 1
  12    4   34 1
  13    5   10 1
  14    5    9 1
  15    5   35 1
  16    6   11 1
  17    6   36 1
  18    6   37 1
  19    7   12 1
  20    7   38 1
  21    8   11 1
  22    8   39 1
  23    8   40 1
  24    9   41 1
  25    9   42 1
  26   10   13 1
  27   10   14 1
  28   10   43 1
  29   11   44 1
  30   11   45 1
  31   12   15 2
  32   12   46 1
  33   13   16 1
  34   13   47 1
  35   13   48 1
  36   14   49 1
  37   14   50 1
  38   14   51 1
  39   15   17 1
  40   15   18 1
  41   16   26 1
  42   16   29 1
  43   16   52 1
  44   17   19 1
  45   17   20 2
  46   18   21 1
  47   18   53 1
  48   18   54 1
  49   19   22 1
  50   19   23 1
  51   19   55 1
  52   20   56 1
  53   20   57 1
  54   21   24 1
  55   21   22 1
  56   21   58 1
  57   22   59 1
  58   22   60 1
  59   23   61 1
  60   24   62 1
  61   25   63 1
  62   25   64 1
  63   25   65 1
  64   26   27 1
  65   27   28 1
  66   27   31 2
  67   28   29 1
  68   28   30 2
  69   29   66 1
  70   29   67 1
  71   30   68 1
  72   30   69 1

#	End of record

