#	Name: ASD00311039
#	Creating user name:	WinNT
#	Creation time:	15. 06. 2019 18:34

#	Modifying user name:	WinNT
#	Modification time:	15. 06. 2019 18:34

#	Program:	/corina/corina34_cracker 3.40 0067  02.08.2006

@<TRIPOS>MOLECULE
ASD00311039
  32   34    0    0    0
SMALL
NO_CHARGES


@<TRIPOS>ATOM
   1 C1            -0.0167     1.3795     0.0096 C.ar    
   2 C2             0.0021    -0.0041     0.0020 C.ar    
   3 N3             1.1410    -0.6698    -0.0124 N.ar    
   4 C4             2.3057    -0.0554    -0.0203 C.ar    
   5 C5             2.3727     1.3387    -0.0134 C.ar    
   6 C6             1.1802     2.0730     0.0019 C.ar    
   7 C7             4.9186     1.2497    -0.0382 C.2     
   8 C8             3.6809     2.0288    -0.0222 C.2     
   9 C9             7.2979    -0.3110    -0.0693 C.ar    
  10 C10            7.3580     1.0965    -0.0623 C.ar    
  11 C11            6.1133     1.8800    -0.0462 C.2     
  12 C12            8.4339    -1.0531    -0.0837 C.ar    
  13 C13            9.6891    -0.4187    -0.0913 C.ar    
  14 C14            9.7674     0.9970    -0.0849 C.ar    
  15 C15            8.5827     1.7495    -0.0700 C.ar    
  16 O16            3.7273     3.2450    -0.0161 O.2     
  17 N17           10.9623     1.5981    -0.0917 N.ar    
  18 C18           12.0742     0.9044    -0.1043 C.ar    
  19 C19           12.0681    -0.4890    -0.1112 C.ar    
  20 C20           10.8812    -1.1660    -0.1053 C.ar    
  21 H21           -0.9560     1.9124     0.0170 H       
  22 H22           -0.9310    -0.5479     0.0084 H       
  23 H23            3.2169    -0.6352    -0.0317 H       
  24 H24            1.1948     3.1529     0.0072 H       
  25 H25            4.8773     0.1705    -0.0436 H       
  26 H26            6.3374    -0.8047    -0.0586 H       
  27 H27            6.1545     2.9592    -0.0408 H       
  28 H28            8.3741    -2.1314    -0.0889 H       
  29 H29            8.6238     2.8287    -0.0643 H       
  30 H30           13.0197     1.4263    -0.1098 H       
  31 H31           13.0007    -1.0335    -0.1213 H       
  32 H32           10.8587    -2.2458    -0.1102 H       
@<TRIPOS>BOND
   1    1    2 ar
   2    1    6 ar
   3    1   21 1
   4    2    3 ar
   5    2   22 1
   6    3    4 ar
   7    4    5 ar
   8    4   23 1
   9    5    6 ar
  10    5    8 1
  11    6   24 1
  12    7    8 1
  13    7   11 2
  14    7   25 1
  15    8   16 2
  16    9   10 ar
  17    9   12 ar
  18    9   26 1
  19   10   11 1
  20   10   15 ar
  21   11   27 1
  22   12   13 ar
  23   12   28 1
  24   13   14 ar
  25   13   20 ar
  26   14   15 ar
  27   14   17 ar
  28   15   29 1
  29   17   18 ar
  30   18   19 ar
  31   18   30 1
  32   19   20 ar
  33   19   31 1
  34   20   32 1

#	End of record

