#	Name: ASD01910056
#	Creating user name:	WinNT
#	Creation time:	15. 06. 2019 19:55

#	Modifying user name:	WinNT
#	Modification time:	15. 06. 2019 19:55

#	Program:	/corina/corina34_cracker 3.40 0067  02.08.2006

@<TRIPOS>MOLECULE
ASD01910056
  57   61    0    0    0
SMALL
NO_CHARGES


@<TRIPOS>ATOM
   1 C1            -0.6205     1.3270     0.1889 C.2     
   2 N2            -0.8340     1.1411    -1.1611 N.am    
   3 N3            -1.9186     0.2667    -1.3132 N.pl3   
   4 C4            -2.3577    -0.0734    -0.0550 C.2     
   5 C5            -1.5375     0.5887     0.8770 C.2     
   6 C6             0.4275     2.1767     0.7875 C.ar    
   7 C7             0.1014     3.0889     1.7942 C.ar    
   8 C8             1.0858     3.8796     2.3490 C.ar    
   9 C9             2.3940     3.7710     1.9108 C.ar    
  10 C10            2.7242     2.8699     0.9138 C.ar    
  11 C11            1.7513     2.0684     0.3542 C.ar    
  12 C12           -0.1239     1.7026    -2.1596 C.2     
  13 C13            0.2216     0.9088    -3.3581 C.ar    
  14 C14            0.8104     1.5305    -4.4614 C.ar    
  15 C15            1.1323     0.7912    -5.5778 C.ar    
  16 C16            0.8699    -0.5805    -5.6066 C.ar    
  17 C17            0.2811    -1.2021    -4.5030 C.ar    
  18 C18           -0.0355    -0.4637    -3.3845 C.ar    
  19 C19           -2.4565    -0.1788    -2.5237 C.ar    
  20 N20           -3.3730    -0.8867     0.2299 N.2     
  21 O21            0.2324     2.8614    -2.0748 O.2     
  22 C22           -3.7705    -1.0409     1.4964 C.2     
  23 C23           -4.9673    -1.8586     1.8028 C.ar    
  24 C24           -5.3821    -2.0195     3.1256 C.ar    
  25 C25           -6.4946    -2.7795     3.4112 C.ar    
  26 C26           -7.2078    -3.3894     2.3764 C.ar    
  27 C27           -6.7920    -3.2280     1.0526 C.ar    
  28 C28           -5.6827    -2.4630     0.7681 C.ar    
  29 O29           -3.1485    -0.5089     2.3993 O.2     
  30 C30           -2.6860    -1.5338    -2.7268 C.ar    
  31 C31           -3.2175    -1.9706    -3.9242 C.ar    
  32 C32           -3.5209    -1.0610    -4.9206 C.ar    
  33 C33           -3.2938     0.2886    -4.7218 C.ar    
  34 C34           -2.7682     0.7328    -3.5245 C.ar    
  35 C35           -8.3643    -4.1801     2.6727 C.1     
  36 N36           -9.2818    -4.8074     2.9077 N.1     
  37 C37            1.2042    -1.3492    -6.7676 C.1     
  38 N38            1.4694    -1.9591    -7.6887 N.1     
  39 H39           -1.6239     0.5284     1.9519 H       
  40 H40           -0.9192     3.1750     2.1369 H       
  41 H41            0.8351     4.5855     3.1270 H       
  42 H42            3.1608     4.3927     2.3488 H       
  43 H43            3.7471     2.7910     0.5762 H       
  44 H44            2.0104     1.3656    -0.4238 H       
  45 H45            1.0129     2.5911    -4.4393 H       
  46 H46            1.5872     1.2720    -6.4312 H       
  47 H47            0.0779    -2.2626    -4.5253 H       
  48 H48           -0.4904    -0.9444    -2.5311 H       
  49 H49           -4.8304    -1.5482     3.9255 H       
  50 H50           -6.8153    -2.9041     4.4349 H       
  51 H51           -7.3428    -3.6995     0.2522 H       
  52 H52           -5.3611    -2.3381    -0.2554 H       
  53 H53           -2.4486    -2.2448    -1.9493 H       
  54 H54           -3.3962    -3.0239    -4.0827 H       
  55 H55           -3.9359    -1.4054    -5.8564 H       
  56 H56           -3.5315     0.9963    -5.5022 H       
  57 H57           -2.5914     1.7870    -3.3697 H       
@<TRIPOS>BOND
   1    1    2 1
   2    1    6 1
   3    1    5 2
   4    2    3 1
   5    2   12 am
   6    3    4 1
   7    3   19 1
   8    4    5 1
   9    4   20 2
  10    5   39 1
  11    6    7 ar
  12    6   11 ar
  13    7    8 ar
  14    7   40 1
  15    8    9 ar
  16    8   41 1
  17    9   10 ar
  18    9   42 1
  19   10   11 ar
  20   10   43 1
  21   11   44 1
  22   12   13 1
  23   12   21 2
  24   13   14 ar
  25   13   18 ar
  26   14   15 ar
  27   14   45 1
  28   15   16 ar
  29   15   46 1
  30   16   17 ar
  31   16   37 1
  32   17   18 ar
  33   17   47 1
  34   18   48 1
  35   19   30 ar
  36   19   34 ar
  37   20   22 1
  38   22   23 1
  39   22   29 2
  40   23   24 ar
  41   23   28 ar
  42   24   25 ar
  43   24   49 1
  44   25   26 ar
  45   25   50 1
  46   26   27 ar
  47   26   35 1
  48   27   28 ar
  49   27   51 1
  50   28   52 1
  51   30   31 ar
  52   30   53 1
  53   31   32 ar
  54   31   54 1
  55   32   33 ar
  56   32   55 1
  57   33   34 ar
  58   33   56 1
  59   34   57 1
  60   35   36 3
  61   37   38 3

#	End of record

