#	Name: ASD08170121
#	Creating user name:	WinNT
#	Creation time:	15. 06. 2019 21:17

#	Modifying user name:	WinNT
#	Modification time:	15. 06. 2019 21:17

#	Program:	/corina/corina34_cracker 3.40 0067  02.08.2006

@<TRIPOS>MOLECULE
ASD08170121
  74   79    0    0    0
SMALL
NO_CHARGES


@<TRIPOS>ATOM
   1 C1            -0.0187     1.5258     0.0104 C.3     
   2 C2             0.0021    -0.0041     0.0020 C.3     
   3 C3             1.4167     2.0553    -0.0004 C.3     
   4 C4             1.3960     3.5852     0.0080 C.3     
   5 C5             2.8098     4.1068    -0.0027 C.2     
   6 C6            -1.4117    -0.5257     0.0127 C.2     
   7 S7             3.7994     4.4593     1.4143 S.3     
   8 C8             5.0770     4.9390     0.3786 C.2     
   9 N9             4.6867     4.8059    -0.8531 N.2     
  10 N10            3.5185     4.3715    -1.0541 N.2     
  11 S11           -2.3742    -0.8935     1.4445 S.3     
  12 N12           -2.1404    -0.7792    -1.0277 N.2     
  13 N13           -3.3061    -1.2119    -0.8091 N.2     
  14 C14           -3.6713    -1.3622     0.4283 C.2     
  15 N15           -4.9107    -1.8251     0.8572 N.am    
  16 C16           -5.8536    -2.1613    -0.0452 C.2     
  17 O17           -5.6213    -2.0602    -1.2312 O.2     
  18 N18            6.3249     5.3958     0.7887 N.am    
  19 C19            7.2495     5.7444    -0.1278 C.2     
  20 C20            8.6017     6.2394     0.3166 C.3     
  21 O21            6.9932     5.6598    -1.3102 O.2     
  22 C22           -7.1965    -2.6628     0.4196 C.3     
  23 C23            9.2850     5.1737     1.1341 C.2     
  24 C24           -7.8632    -1.6087     1.2654 C.2     
  25 C25            8.8151     4.6568     2.2704 C.2     
  26 C26           -7.3704    -1.1074     2.3991 C.2     
  27 C27            9.4556     6.5693    -0.9116 C.3     
  28 C28            8.7922     7.7054    -1.6945 C.3     
  29 O29            8.6357     8.8416    -0.8420 O.3     
  30 C30            7.8077     8.6056     0.2986 C.3     
  31 C31            8.4315     7.5044     1.1634 C.3     
  32 C32           -8.0751    -2.9760    -0.7955 C.3     
  33 C33           -7.4276    -4.1009    -1.6073 C.3     
  34 O34           -7.2538    -5.2487    -0.7739 O.3     
  35 C35           -6.4029    -5.0283     0.3528 C.3     
  36 C36           -7.0091    -3.9393     1.2452 C.3     
  37 C37           -8.1615    -0.1461     3.0042 C.2     
  38 C38           -9.2967     0.1333     2.3619 C.2     
  39 S39           -9.4064    -0.8458     0.9049 S.3     
  40 C40            9.6180     3.6871     2.8460 C.2     
  41 C41           10.7398     3.4166     2.1771 C.2     
  42 S42           10.8203     4.4157     0.7318 S.3     
  43 H43           -0.5459     1.8868    -0.8726 H       
  44 H44           -0.5289     1.8773     0.9072 H       
  45 H45            0.5123    -0.3556    -0.8948 H       
  46 H46            0.5293    -0.3651     0.8851 H       
  47 H47            1.9439     1.6943     0.8826 H       
  48 H48            1.9269     1.7038    -0.8972 H       
  49 H49            0.8688     3.9463    -0.8751 H       
  50 H50            0.8858     3.9367     0.9048 H       
  51 H51           -5.0964    -1.9059     1.8058 H       
  52 H52            6.5298     5.4635     1.7344 H       
  53 H53            7.8793     4.9712     2.7084 H       
  54 H54           -6.4260    -1.4276     2.8137 H       
  55 H55           10.4500     6.8800    -0.5911 H       
  56 H56            9.5357     5.6874    -1.5471 H       
  57 H57            9.4174     7.9734    -2.5462 H       
  58 H58            7.8143     7.3798    -2.0492 H       
  59 H59            7.7237     9.5221     0.8827 H       
  60 H60            6.8170     8.2917    -0.0301 H       
  61 H61            7.7787     7.2927     2.0103 H       
  62 H62            9.4051     7.8338     1.5262 H       
  63 H63           -9.0628    -3.2914    -0.4593 H       
  64 H64           -8.1681    -2.0854    -1.4170 H       
  65 H65           -8.0698    -4.3573    -2.4498 H       
  66 H66           -6.4571    -3.7700    -1.9772 H       
  67 H67           -6.3070    -5.9527     0.9223 H       
  68 H68           -5.4191    -4.7095     0.0085 H       
  69 H69           -6.3393    -3.7392     2.0816 H       
  70 H70           -7.9752    -4.2740     1.6231 H       
  71 H71           -7.8810     0.3406     3.9266 H       
  72 H72          -10.0340     0.8533     2.6852 H       
  73 H73            9.3560     3.1877     3.7671 H       
  74 H74           11.4832     2.6922     2.4754 H       
@<TRIPOS>BOND
   1    1    2 1
   2    1    3 1
   3    1   43 1
   4    1   44 1
   5    2    6 1
   6    2   45 1
   7    2   46 1
   8    3    4 1
   9    3   47 1
  10    3   48 1
  11    4    5 1
  12    4   49 1
  13    4   50 1
  14    5    7 1
  15    5   10 2
  16    6   11 1
  17    6   12 2
  18    7    8 1
  19    8    9 2
  20    8   18 1
  21    9   10 1
  22   11   14 1
  23   12   13 1
  24   13   14 2
  25   14   15 1
  26   15   16 am
  27   15   51 1
  28   16   17 2
  29   16   22 1
  30   18   19 am
  31   18   52 1
  32   19   20 1
  33   19   21 2
  34   20   23 1
  35   20   27 1
  36   20   31 1
  37   22   24 1
  38   22   32 1
  39   22   36 1
  40   23   25 2
  41   23   42 1
  42   24   26 2
  43   24   39 1
  44   25   40 1
  45   25   53 1
  46   26   37 1
  47   26   54 1
  48   27   28 1
  49   27   55 1
  50   27   56 1
  51   28   29 1
  52   28   57 1
  53   28   58 1
  54   29   30 1
  55   30   31 1
  56   30   59 1
  57   30   60 1
  58   31   61 1
  59   31   62 1
  60   32   33 1
  61   32   63 1
  62   32   64 1
  63   33   34 1
  64   33   65 1
  65   33   66 1
  66   34   35 1
  67   35   36 1
  68   35   67 1
  69   35   68 1
  70   36   69 1
  71   36   70 1
  72   37   38 2
  73   37   71 1
  74   38   39 1
  75   38   72 1
  76   40   41 2
  77   40   73 1
  78   41   42 1
  79   41   74 1

#	End of record

