#	Name: ASD03080055
#	Creating user name:	WinNT
#	Creation time:	15. 06. 2019 20:26

#	Modifying user name:	WinNT
#	Modification time:	15. 06. 2019 20:26

#	Program:	/corina/corina34_cracker 3.40 0067  02.08.2006

@<TRIPOS>MOLECULE
ASD03080055
  25   27    0    0    0
SMALL
NO_CHARGES


@<TRIPOS>ATOM
   1 O1            -0.0144     1.2085     0.0087 O.3     
   2 N2             0.0021    -0.0041     0.0020 N.2     
   3 C3             1.2349    -0.4421    -0.0121 C.2     
   4 N4             2.0456     0.6366    -0.0141 N.2     
   5 C5             1.2410     1.6828    -0.0008 C.2     
   6 C6             3.0158    -2.1952    -0.0380 C.ar    
   7 C7             1.6628    -1.8634    -0.0238 C.ar    
   8 C8             0.7152    -2.8900    -0.0203 C.ar    
   9 C9             1.1654    -4.1994    -0.0312 C.ar    
  10 C10            2.5257    -4.4467    -0.0450 C.ar    
  11 N11            3.3969    -3.4560    -0.0480 N.ar    
  12 C12            2.9951     3.4580    -0.0089 C.ar    
  13 C13            1.6452     3.1045     0.0026 C.ar    
  14 C14            0.6800     4.1187     0.0168 C.ar    
  15 C15            1.1099     5.4333     0.0189 C.ar    
  16 C16            2.4684     5.7021     0.0070 C.ar    
  17 N17            3.3560     4.7244    -0.0063 N.ar    
  18 Cl18           3.0132     7.3504     0.0090 Cl      
  19 H19            3.7588    -1.4115    -0.0454 H       
  20 H20           -0.3417    -2.6680    -0.0091 H       
  21 H21            0.4617    -5.0186    -0.0286 H       
  22 H22            2.8806    -5.4667    -0.0532 H       
  23 H23            3.7506     2.6862    -0.0154 H       
  24 H24           -0.3734     3.8806     0.0256 H       
  25 H25            0.3937     6.2417     0.0294 H       
@<TRIPOS>BOND
   1    1    2 1
   2    1    5 1
   3    2    3 2
   4    3    4 1
   5    3    7 1
   6    4    5 2
   7    5   13 1
   8    6    7 ar
   9    6   11 ar
  10    6   19 1
  11    7    8 ar
  12    8    9 ar
  13    8   20 1
  14    9   10 ar
  15    9   21 1
  16   10   11 ar
  17   10   22 1
  18   12   13 ar
  19   12   17 ar
  20   12   23 1
  21   13   14 ar
  22   14   15 ar
  23   14   24 1
  24   15   16 ar
  25   15   25 1
  26   16   17 ar
  27   16   18 1

#	End of record

