#	Name: ASD03331043
#	Creating user name:	WinNT
#	Creation time:	15. 06. 2019 20:38

#	Modifying user name:	WinNT
#	Modification time:	15. 06. 2019 20:38

#	Program:	/corina/corina34_cracker 3.40 0067  02.08.2006

@<TRIPOS>MOLECULE
ASD03331043
  73   77    0    0    0
SMALL
NO_CHARGES


@<TRIPOS>ATOM
   1 N1            -0.7031     1.6247    -0.4214 N.pl3   
   2 C2            -0.5807     0.3006    -0.1380 C.2     
   3 C3             0.7024    -0.4072     0.2113 C.3     
   4 N4             1.4238     0.3755     1.2270 N.3     
   5 C5             2.3092     1.3623     0.6057 C.3     
   6 C6             1.7084     1.8942    -0.6923 C.3     
   7 C7             0.3852     2.6060    -0.3976 C.3     
   8 C8            -2.0147     1.8601    -0.7150 C.2     
   9 N9            -2.6784     0.7336    -0.6004 N.2     
  10 C10           -1.8223    -0.2485    -0.2425 C.2     
  11 C11           -2.1701    -1.6611    -0.0078 C.2     
  12 O12           -1.3060    -2.4551     0.3116 O.2     
  13 N13           -3.4457    -2.0732    -0.1471 N.am    
  14 C14            2.1709    -0.5035     2.1364 C.3     
  15 C15           -5.0395    -3.8224    -0.6849 C.2     
  16 C16           -3.7915    -3.4775     0.0862 C.3     
  17 C17           -4.0368    -3.7010     1.5798 C.3     
  18 C18           -4.4606    -5.1521     1.8155 C.3     
  19 C19           -4.1313    -6.8987    -2.2257 C.2     
  20 C20           -4.2038    -6.1197    -0.9345 C.3     
  21 N21           -5.0387    -6.7831    -3.2285 N.pl3   
  22 N22           -5.2391    -5.0843    -1.1144 N.am    
  23 C23           -6.4956    -5.4685    -1.7754 C.3     
  24 C24           -6.1982    -5.8924    -3.2186 C.3     
  25 N25           -3.5482    -8.2157    -3.7695 N.2     
  26 N26           -3.2485    -7.7742    -2.5958 N.2     
  27 C27           -4.6410    -7.6354    -4.1941 C.2     
  28 C28           -5.3282    -7.8770    -5.5134 C.3     
  29 F29           -4.8309    -9.0505    -6.0902 F       
  30 F30           -6.7054    -8.0072    -5.3048 F       
  31 F31           -5.0863    -6.7976    -6.3698 F       
  32 O32           -5.8642    -2.9646    -0.9190 O.2     
  33 C33           -2.7505    -3.4128     2.3566 C.3     
  34 C34           -5.1445    -2.7616     2.0609 C.3     
  35 C35           -2.5922     3.1667    -1.0980 C.ar    
  36 C36           -3.4525     3.2592    -2.1955 C.ar    
  37 C37           -3.9888     4.4836    -2.5473 C.ar    
  38 C38           -3.6755     5.6146    -1.8158 C.ar    
  39 C39           -2.8235     5.5290    -0.7278 C.ar    
  40 C40           -2.2852     4.3110    -0.3620 C.ar    
  41 F41           -3.7587     2.1549    -2.9110 F       
  42 Cl42          -2.4361     6.9553     0.1828 Cl      
  43 H43            0.4763    -1.3973     0.6072 H       
  44 H44            1.3203    -0.5031    -0.6814 H       
  45 H45            2.4614     2.1918     1.2963 H       
  46 H46            3.2705     0.8956     0.3906 H       
  47 H47            2.4033     2.5969    -1.1520 H       
  48 H48            1.5289     1.0640    -1.3754 H       
  49 H49            0.2050     3.3685    -1.1553 H       
  50 H50            0.4337     3.0726     0.5863 H       
  51 H51           -4.1349    -1.4399    -0.4019 H       
  52 H52            2.8443    -1.1364     1.5583 H       
  53 H53            2.7504     0.1024     2.8329 H       
  54 H54            1.4726    -1.1288     2.6926 H       
  55 H55           -2.9713    -4.1137    -0.2465 H       
  56 H56           -3.6634    -5.8208     1.4908 H       
  57 H57           -4.6542    -5.3062     2.8771 H       
  58 H58           -5.3661    -5.3632     1.2466 H       
  59 H59           -4.4796    -6.7831    -0.1147 H       
  60 H60           -3.2414    -5.6516    -0.7279 H       
  61 H61           -6.9500    -6.3007    -1.2378 H       
  62 H62           -7.1794    -4.6197    -1.7789 H       
  63 H63           -5.9844    -5.0094    -3.8209 H       
  64 H64           -7.0620    -6.4145    -3.6302 H       
  65 H65           -2.4486    -2.3790     2.1887 H       
  66 H66           -2.9252    -3.5720     3.4207 H       
  67 H67           -1.9614    -4.0820     2.0139 H       
  68 H68           -6.0608    -2.9670     1.5075 H       
  69 H69           -5.3192    -2.9208     3.1249 H       
  70 H70           -4.8425    -1.7278     1.8930 H       
  71 H71           -4.6535     4.5571    -3.3953 H       
  72 H72           -4.0971     6.5690    -2.0947 H       
  73 H73           -1.6247     4.2454     0.4899 H       
@<TRIPOS>BOND
   1    1    2 1
   2    1    7 1
   3    1    8 1
   4    2    3 1
   5    2   10 2
   6    3    4 1
   7    3   43 1
   8    3   44 1
   9    4    5 1
  10    4   14 1
  11    5    6 1
  12    5   45 1
  13    5   46 1
  14    6    7 1
  15    6   47 1
  16    6   48 1
  17    7   49 1
  18    7   50 1
  19    8    9 2
  20    8   35 1
  21    9   10 1
  22   10   11 1
  23   11   12 2
  24   11   13 am
  25   13   16 1
  26   13   51 1
  27   14   52 1
  28   14   53 1
  29   14   54 1
  30   15   22 am
  31   15   32 2
  32   15   16 1
  33   16   17 1
  34   16   55 1
  35   17   18 1
  36   17   33 1
  37   17   34 1
  38   18   56 1
  39   18   57 1
  40   18   58 1
  41   19   20 1
  42   19   21 1
  43   19   26 2
  44   20   22 1
  45   20   59 1
  46   20   60 1
  47   21   24 1
  48   21   27 1
  49   22   23 1
  50   23   24 1
  51   23   61 1
  52   23   62 1
  53   24   63 1
  54   24   64 1
  55   25   26 1
  56   25   27 2
  57   27   28 1
  58   28   29 1
  59   28   30 1
  60   28   31 1
  61   33   65 1
  62   33   66 1
  63   33   67 1
  64   34   68 1
  65   34   69 1
  66   34   70 1
  67   35   36 ar
  68   35   40 ar
  69   36   37 ar
  70   36   41 1
  71   37   38 ar
  72   37   71 1
  73   38   39 ar
  74   38   72 1
  75   39   40 ar
  76   39   42 1
  77   40   73 1

#	End of record

