#	Name: ASD01148773
#	Creating user name:	WinNT
#	Creation time:	15. 06. 2019 19:03

#	Modifying user name:	WinNT
#	Modification time:	15. 06. 2019 19:03

#	Program:	/corina/corina34_cracker 3.40 0067  02.08.2006

@<TRIPOS>MOLECULE
ASD01148773
  55   58    0    0    0
SMALL
NO_CHARGES


@<TRIPOS>ATOM
   1 N1             0.0239     1.3705    -0.2552 N.pl3   
   2 C2             0.0185     0.0063    -0.2150 C.2     
   3 C3             1.3057    -0.4146     0.1170 C.2     
   4 C4             2.0925     0.7522     0.2765 C.2     
   5 C5             1.2885     1.8222     0.0446 C.2     
   6 C6             1.7590    -1.8029     0.2717 C.2     
   7 O7             0.9777    -2.7196     0.1058 O.2     
   8 O8             3.0417    -2.0609     0.5976 O.3     
   9 C9            -1.0780     2.1796    -0.5586 C.ar    
  10 C10           -1.6427     2.9831     0.4235 C.ar    
  11 C11           -2.7293     3.7798     0.1212 C.ar    
  12 C12           -3.2554     3.7781    -1.1579 C.ar    
  13 C13           -2.6958     2.9790    -2.1377 C.ar    
  14 C14           -1.6049     2.1844    -1.8432 C.ar    
  15 S15           -3.4468     4.7992     1.3665 S.o2    
  16 O16           -4.7960     4.9623     0.9515 O.2     
  17 O17           -3.1296     4.1399     2.5847 O.2     
  18 C18           -2.5475     6.3695     1.2396 C.3     
  19 C19           -1.1414    -0.8665    -0.4756 C.ar    
  20 C20           -1.0016    -1.9955    -1.2875 C.ar    
  21 C21           -2.0895    -2.8074    -1.5274 C.ar    
  22 C22           -3.3204    -2.5058    -0.9656 C.ar    
  23 C23           -3.4654    -1.3873    -0.1594 C.ar    
  24 C24           -2.3834    -0.5712     0.0929 C.ar    
  25 F25           -4.3832    -3.3048    -1.2050 F       
  26 C26            1.7041     3.2395     0.1040 C.ar    
  27 C27            2.8420     3.6064     0.8246 C.ar    
  28 C28            3.2250     4.9305     0.8760 C.ar    
  29 C29            2.4834     5.8949     0.2146 C.ar    
  30 C30            1.3537     5.5370    -0.5018 C.ar    
  31 C31            0.9636     4.2155    -0.5650 C.ar    
  32 Cl32           2.9715     7.5594     0.2844 Cl      
  33 C33            3.4194    -3.4563     0.7337 C.3     
  34 C34            4.9009    -3.5499     1.1040 C.3     
  35 H35            3.1403     0.7852     0.5361 H       
  36 H36           -1.2326     2.9846     1.4226 H       
  37 H37           -4.1053     4.4021    -1.3919 H       
  38 H38           -3.1091     2.9796    -3.1355 H       
  39 H39           -1.1652     1.5640    -2.6101 H       
  40 H40           -2.6852     6.7875     0.2424 H       
  41 H41           -2.9308     7.0687     1.9828 H       
  42 H42           -1.4862     6.1958     1.4175 H       
  43 H43           -0.0433    -2.2311    -1.7263 H       
  44 H44           -1.9827    -3.6801    -2.1546 H       
  45 H45           -4.4268    -1.1574     0.2755 H       
  46 H46           -2.4965     0.2974     0.7248 H       
  47 H47            3.4210     2.8551     1.3411 H       
  48 H48            4.1050     5.2157     1.4334 H       
  49 H49            0.7791     6.2937    -1.0153 H       
  50 H50            0.0847     3.9371    -1.1274 H       
  51 H51            2.8193    -3.9204     1.5164 H       
  52 H52            3.2475    -3.9730    -0.2105 H       
  53 H53            5.5010    -3.0857     0.3213 H       
  54 H54            5.0728    -3.0331     2.0482 H       
  55 H55            5.1845    -4.5974     1.2062 H       
@<TRIPOS>BOND
   1    1    2 1
   2    1    5 1
   3    1    9 1
   4    2    3 2
   5    2   19 1
   6    3    4 1
   7    3    6 1
   8    4    5 2
   9    4   35 1
  10    5   26 1
  11    6    7 2
  12    6    8 1
  13    8   33 1
  14    9   10 ar
  15    9   14 ar
  16   10   11 ar
  17   10   36 1
  18   11   12 ar
  19   11   15 1
  20   12   13 ar
  21   12   37 1
  22   13   14 ar
  23   13   38 1
  24   14   39 1
  25   15   16 2
  26   15   17 2
  27   15   18 1
  28   18   40 1
  29   18   41 1
  30   18   42 1
  31   19   20 ar
  32   19   24 ar
  33   20   21 ar
  34   20   43 1
  35   21   22 ar
  36   21   44 1
  37   22   23 ar
  38   22   25 1
  39   23   24 ar
  40   23   45 1
  41   24   46 1
  42   26   27 ar
  43   26   31 ar
  44   27   28 ar
  45   27   47 1
  46   28   29 ar
  47   28   48 1
  48   29   30 ar
  49   29   32 1
  50   30   31 ar
  51   30   49 1
  52   31   50 1
  53   33   34 1
  54   33   51 1
  55   33   52 1
  56   34   53 1
  57   34   54 1
  58   34   55 1

#	End of record

