#	Name: ASD02038162
#	Creating user name:	WinNT
#	Creation time:	15. 06. 2019 20:16

#	Modifying user name:	WinNT
#	Modification time:	15. 06. 2019 20:16

#	Program:	/corina/corina34_cracker 3.40 0067  02.08.2006

@<TRIPOS>MOLECULE
ASD02038162
  58   60    0    0    0
SMALL
NO_CHARGES


@<TRIPOS>ATOM
   1 C1             0.5067     1.4976     0.4190 C.3     
   2 C2             0.5667    -0.0317     0.4187 C.3     
   3 N3             1.0690    -0.4994    -0.8808 N.3     
   4 C4             1.0699    -1.9669    -0.9476 C.3     
   5 C5             1.8232    -2.4199    -2.2000 C.3     
   6 O6             1.1793    -1.8905    -3.3607 O.3     
   7 C7             1.8241    -3.9483    -2.2696 C.3     
   8 O8             2.6251    -4.3743    -3.3737 O.3     
   9 C9             2.7318    -5.7144    -3.5782 C.ar    
  10 C10            3.4940    -6.1963    -4.6322 C.ar    
  11 C11            2.0830    -6.5991    -2.7293 C.ar    
  12 C12            2.1917    -7.9601    -2.9359 C.ar    
  13 C13            2.9502    -8.4430    -3.9938 C.ar    
  14 C14            3.6028    -7.5571    -4.8404 C.ar    
  15 N15            3.0613    -9.8242    -4.2037 N.am    
  16 C16            2.4090     0.0409    -1.1495 C.3     
  17 C17            2.3490     1.5702    -1.1492 C.3     
  18 N18            1.8467     2.0378     0.1502 N.3     
  19 C19            1.8458     3.4317     0.2138 C.ar    
  20 C20            1.4045     4.0735     1.3656 C.ar    
  21 C21            1.4020     5.4500     1.4312 C.ar    
  22 C22            1.8437     6.2001     0.3398 C.ar    
  23 C23            2.2867     5.5529    -0.8152 C.ar    
  24 C24            2.2917     4.1761    -0.8728 C.ar    
  25 C25            2.0112   -10.6307    -3.9519 C.2     
  26 N26            2.0860   -11.9448    -4.2420 N.am    
  27 O27            0.9964   -10.1728    -3.4631 O.2     
  28 C28            1.8420     7.6307     0.4046 C.1     
  29 C29            1.8405     8.8035     0.4578 C.1     
  30 C30            1.8387    10.2740     0.5244 C.3     
  31 H31           -0.1832     1.8346    -0.3546 H       
  32 H32            0.1618     1.8478     1.3919 H       
  33 H33            1.2356    -0.3696     1.2102 H       
  34 H34           -0.4316    -0.4349     0.5891 H       
  35 H35            1.5611    -2.3706    -0.0623 H       
  36 H36            0.0428    -2.3293    -0.9904 H       
  37 H37            2.8503    -2.0575    -2.1572 H       
  38 H38            0.2599    -2.1721    -3.4632 H       
  39 H39            2.2347    -4.3539    -1.3450 H       
  40 H40            0.8032    -4.3066    -2.4018 H       
  41 H41            4.0022    -5.5071    -5.2903 H       
  42 H42            1.4931    -6.2233    -1.9063 H       
  43 H43            1.6872    -8.6488    -2.2744 H       
  44 H44            4.1929    -7.9321    -5.6636 H       
  45 H45            3.8939   -10.1997    -4.5302 H       
  46 H46            3.0989    -0.2962    -0.3759 H       
  47 H47            2.7539    -0.3093    -2.1224 H       
  48 H48            3.3473     1.9733    -1.3196 H       
  49 H49            1.6800     1.9081    -1.9407 H       
  50 H50            1.0629     3.4927     2.2096 H       
  51 H51            1.0584     5.9479     2.3258 H       
  52 H52            2.6289     6.1306    -1.6611 H       
  53 H53            2.6342     3.6748    -1.7660 H       
  54 H54            2.8956   -12.3101    -4.6319 H       
  55 H55            1.3303   -12.5252    -4.0608 H       
  56 H56            2.2147    10.6807    -0.4144 H       
  57 H57            0.8219    10.6288     0.6928 H       
  58 H58            2.4782    10.6013     1.3442 H       
@<TRIPOS>BOND
   1    1    2 1
   2    1   18 1
   3    1   31 1
   4    1   32 1
   5    2    3 1
   6    2   33 1
   7    2   34 1
   8    3    4 1
   9    3   16 1
  10    4    5 1
  11    4   35 1
  12    4   36 1
  13    5    6 1
  14    5    7 1
  15    5   37 1
  16    6   38 1
  17    7    8 1
  18    7   39 1
  19    7   40 1
  20    8    9 1
  21    9   10 ar
  22    9   11 ar
  23   10   14 ar
  24   10   41 1
  25   11   12 ar
  26   11   42 1
  27   12   13 ar
  28   12   43 1
  29   13   14 ar
  30   13   15 1
  31   14   44 1
  32   15   25 am
  33   15   45 1
  34   16   17 1
  35   16   46 1
  36   16   47 1
  37   17   18 1
  38   17   48 1
  39   17   49 1
  40   18   19 1
  41   19   20 ar
  42   19   24 ar
  43   20   21 ar
  44   20   50 1
  45   21   22 ar
  46   21   51 1
  47   22   23 ar
  48   22   28 1
  49   23   24 ar
  50   23   52 1
  51   24   53 1
  52   25   26 am
  53   25   27 2
  54   26   54 1
  55   26   55 1
  56   28   29 3
  57   29   30 1
  58   30   56 1
  59   30   57 1
  60   30   58 1

#	End of record

