#	Name: ASD09116040
#	Creating user name:	WinNT
#	Creation time:	15. 06. 2019 21:20

#	Modifying user name:	WinNT
#	Modification time:	15. 06. 2019 21:20

#	Program:	/corina/corina34_cracker 3.40 0067  02.08.2006

@<TRIPOS>MOLECULE
ASD09116040
  24   25    0    0    0
SMALL
NO_CHARGES


@<TRIPOS>ATOM
   1 C1            -0.0167     1.3818     0.0096 C.2     
   2 C2             0.0021    -0.0041     0.0020 C.2     
   3 C3            -1.2977    -0.7813     0.0083 C.3     
   4 C4            -1.9742    -0.6007    -1.3534 C.3     
   5 C5            -2.8075     0.6645    -1.3821 C.3     
   6 C6            -2.0070     1.9502    -1.3361 C.3     
   7 C7            -1.3338     2.1272     0.0325 C.3     
   8 C8             1.1551     2.0713     0.0022 C.2     
   9 N9             2.3222     1.3725    -0.0119 N.am    
  10 C10            2.3046     0.0265    -0.0184 C.2     
  11 N11            1.1519    -0.6496    -0.0112 N.2     
  12 O12            3.3588    -0.5865    -0.0310 O.2     
  13 H13           -1.0928    -1.8381     0.1792 H       
  14 H14           -1.9491    -0.4011     0.7952 H       
  15 H15           -1.2096    -0.5434    -2.1282 H       
  16 H16           -2.6181    -1.4579    -1.5497 H       
  17 H17           -3.4055     0.6630    -2.2934 H       
  18 H18           -3.4859     0.6500    -0.5290 H       
  19 H19           -1.2421     1.9239    -2.1122 H       
  20 H20           -2.6729     2.7935    -1.5191 H       
  21 H21           -1.9763     1.7201     0.8132 H       
  22 H22           -1.1539     3.1859     0.2192 H       
  23 H23            1.1593     3.1513     0.0069 H       
  24 H24            3.1691     1.8453    -0.0176 H       
@<TRIPOS>BOND
   1    1    2 1
   2    1    8 2
   3    1    7 1
   4    2    3 1
   5    2   11 2
   6    3    4 1
   7    3   13 1
   8    3   14 1
   9    4    5 1
  10    4   15 1
  11    4   16 1
  12    5    6 1
  13    5   17 1
  14    5   18 1
  15    6    7 1
  16    6   19 1
  17    6   20 1
  18    7   21 1
  19    7   22 1
  20    8    9 1
  21    8   23 1
  22    9   10 am
  23    9   24 1
  24   10   11 1
  25   10   12 2

#	End of record

