#	Name: ASD01884382
#	Creating user name:	WinNT
#	Creation time:	15. 06. 2019 19:48

#	Modifying user name:	WinNT
#	Modification time:	15. 06. 2019 19:48

#	Program:	/corina/corina34_cracker 3.40 0067  02.08.2006

@<TRIPOS>MOLECULE
ASD01884382
  48   50    0    0    0
SMALL
NO_CHARGES


@<TRIPOS>ATOM
   1 C1             1.1436     3.3785     2.3995 C.ar    
   2 C2             1.7506     3.0151     3.5843 C.ar    
   3 N3             2.9167     2.3978     3.5850 N.ar    
   4 C4             3.5495     2.1025     2.4651 C.ar    
   5 C5             3.0090     2.4327     1.2396 C.ar    
   6 C6             1.7789     3.0849     1.1954 C.ar    
   7 O7             1.2143     3.4263     0.0093 O.3     
   8 C8            -0.0198     3.9908     0.0300 C.ar    
   9 C9            -0.1521     5.3670     0.1969 C.ar    
  10 C10           -1.1489     3.1952    -0.1209 C.ar    
  11 C11           -2.4030     3.7649    -0.1003 C.ar    
  12 C12           -2.5402     5.1426     0.0723 C.ar    
  13 C13           -1.4049     5.9418     0.2187 C.ar    
  14 F14            0.9476     6.1389     0.3380 F       
  15 B15           -3.9686     5.7938     0.0961 Du      
  16 C16            3.7393     2.0924    -0.0340 C.3     
  17 C17            4.8795     1.3964     2.5259 C.3     
  18 O18           -4.2946     7.1811     0.2620 O.3     
  19 C19           -5.4621     7.1830     1.1103 C.3     
  20 C20           -6.0989     5.7937     0.9030 C.3     
  21 O21           -5.2335     5.1327    -0.0496 O.3     
  22 C22           -6.1344     5.0212     2.2231 C.3     
  23 C23           -7.5098     5.9344     0.3281 C.3     
  24 C24           -5.0574     7.3709     2.5738 C.3     
  25 C25           -6.4328     8.2841     0.6787 C.3     
  26 H26            0.1869     3.8796     2.4057 H       
  27 H27            1.2652     3.2391     4.5227 H       
  28 H28           -1.0432     2.1288    -0.2550 H       
  29 H29           -3.2798     3.1454    -0.2182 H       
  30 H30           -1.5081     7.0085     0.3525 H       
  31 H31            3.4352     1.1024    -0.3738 H       
  32 H32            3.4974     2.8296    -0.7996 H       
  33 H33            4.8136     2.0991     0.1503 H       
  34 H34            4.7195     0.3183     2.5083 H       
  35 H35            5.4852     1.6879     1.6679 H       
  36 H36            5.3956     1.6722     3.4455 H       
  37 H37           -6.7234     5.5763     2.9532 H       
  38 H38           -6.5866     4.0430     2.0596 H       
  39 H39           -5.1185     4.8939     2.5970 H       
  40 H40           -7.4615     6.4496    -0.6313 H       
  41 H41           -7.9452     4.9451     0.1877 H       
  42 H42           -8.1277     6.5088     1.0182 H       
  43 H43           -4.5574     8.3323     2.6920 H       
  44 H44           -5.9470     7.3443     3.2031 H       
  45 H45           -4.3794     6.5701     2.8690 H       
  46 H46           -6.7229     8.1261    -0.3600 H       
  47 H47           -7.3194     8.2556     1.3121 H       
  48 H48           -5.9474     9.2552     0.7767 H       
@<TRIPOS>BOND
   1    1    2 ar
   2    1    6 ar
   3    1   26 1
   4    2    3 ar
   5    2   27 1
   6    3    4 ar
   7    4    5 ar
   8    4   17 1
   9    5    6 ar
  10    5   16 1
  11    6    7 1
  12    7    8 1
  13    8    9 ar
  14    8   10 ar
  15    9   14 1
  16    9   13 ar
  17   10   11 ar
  18   10   28 1
  19   11   12 ar
  20   11   29 1
  21   12   13 ar
  22   12   15 1
  23   13   30 1
  24   15   18 1
  25   15   21 1
  26   16   31 1
  27   16   32 1
  28   16   33 1
  29   17   34 1
  30   17   35 1
  31   17   36 1
  32   18   19 1
  33   19   20 1
  34   19   24 1
  35   19   25 1
  36   20   21 1
  37   20   22 1
  38   20   23 1
  39   22   37 1
  40   22   38 1
  41   22   39 1
  42   23   40 1
  43   23   41 1
  44   23   42 1
  45   24   43 1
  46   24   44 1
  47   24   45 1
  48   25   46 1
  49   25   47 1
  50   25   48 1

#	End of record

