#	Name: ASD01812120
#	Creating user name:	WinNT
#	Creation time:	15. 06. 2019 19:28

#	Modifying user name:	WinNT
#	Modification time:	15. 06. 2019 19:28

#	Program:	/corina/corina34_cracker 3.40 0067  02.08.2006

@<TRIPOS>MOLECULE
ASD01812120
  58   62    0    0    0
SMALL
NO_CHARGES


@<TRIPOS>ATOM
   1 C1            -0.0187     1.5258     0.0104 C.3     
   2 C2             0.0021    -0.0041     0.0020 C.3     
   3 C3             0.7182    -0.4975    -1.2568 C.3     
   4 C4             2.1536     0.0321    -1.2676 C.3     
   5 C5             2.1328     1.5619    -1.2592 C.3     
   6 C6             1.4167     2.0553    -0.0004 C.3     
   7 N7             0.7381    -1.9623    -1.2648 N.am    
   8 O8             2.8225    -0.4288    -2.4434 O.3     
   9 C9             0.1435    -2.8193    -2.2969 C.3     
  10 C10            0.4182    -4.2408    -1.8736 C.ar    
  11 C11            1.1274    -4.1645    -0.6707 C.ar    
  12 C12            1.3090    -2.7425    -0.3311 C.2     
  13 C13            1.2191    -6.5632    -0.5888 C.ar    
  14 C14            1.5261    -5.3422    -0.0317 C.ar    
  15 C15            1.6489    -7.8322     0.1009 C.3     
  16 C16            2.9588    -8.3002    -0.4788 C.ar    
  17 C17            4.1510    -7.8693     0.0736 C.ar    
  18 C18            5.3532    -8.2969    -0.4553 C.ar    
  19 C19            5.3638    -9.1601    -1.5426 C.ar    
  20 C20            4.1651    -9.5910    -2.0950 C.ar    
  21 C21            2.9661    -9.1642    -1.5585 C.ar    
  22 N22            6.5823    -9.5954    -2.0819 N.pl3   
  23 N23            7.8588    -9.2418    -1.6261 N.2     
  24 C24            8.7436    -9.8451    -2.3785 C.2     
  25 C25            8.0606   -10.6018    -3.3369 C.2     
  26 C26            6.7336   -10.4358    -3.1305 C.2     
  27 O27            1.8905    -2.3329     0.6550 O.2     
  28 C28            0.1144    -5.4612    -2.4248 C.ar    
  29 C29            0.5133    -6.6301    -1.7847 C.ar    
  30 O30            0.2136    -7.8369    -2.3284 O.3     
  31 C31           -0.5132    -7.8317    -3.5587 C.3     
  32 H32           -0.5459     1.8868    -0.8726 H       
  33 H33           -0.5289     1.8773     0.9072 H       
  34 H34            0.5293    -0.3651     0.8851 H       
  35 H35           -1.0205    -0.3814     0.0098 H       
  36 H36            0.1910    -0.1364    -2.1398 H       
  37 H37            2.6808    -0.3290    -0.3846 H       
  38 H38            3.1554     1.9392    -1.2670 H       
  39 H39            1.6057     1.9230    -2.1423 H       
  40 H40            1.4019     3.1452     0.0056 H       
  41 H41            1.9439     1.6943     0.8826 H       
  42 H42            3.7394    -0.1305    -2.5166 H       
  43 H43           -0.9312    -2.6464    -2.3540 H       
  44 H44            0.6075    -2.6196    -3.2628 H       
  45 H45            2.0745    -5.2943     0.8975 H       
  46 H46            1.7706    -7.6428     1.1674 H       
  47 H47            0.8906    -8.6011    -0.0473 H       
  48 H48            4.1421    -7.1975     0.9191 H       
  49 H49            6.2840    -7.9597    -0.0237 H       
  50 H50            4.1702   -10.2623    -2.9411 H       
  51 H51            2.0334    -9.5022    -1.9852 H       
  52 H52            9.8163    -9.7712    -2.2772 H       
  53 H53            8.5127   -11.2136    -4.1035 H       
  54 H54            5.9381   -10.8911    -3.7018 H       
  55 H55           -0.4338    -5.5136    -3.3538 H       
  56 H56            0.0624    -7.3029    -4.3185 H       
  57 H57           -0.6863    -8.8579    -3.8828 H       
  58 H58           -1.4700    -7.3302    -3.4134 H       
@<TRIPOS>BOND
   1    1    2 1
   2    1    6 1
   3    1   32 1
   4    1   33 1
   5    2    3 1
   6    2   34 1
   7    2   35 1
   8    3    4 1
   9    3    7 1
  10    3   36 1
  11    4    5 1
  12    4    8 1
  13    4   37 1
  14    5    6 1
  15    5   38 1
  16    5   39 1
  17    6   40 1
  18    6   41 1
  19    7    9 1
  20    7   12 am
  21    8   42 1
  22    9   10 1
  23    9   43 1
  24    9   44 1
  25   10   11 ar
  26   10   28 ar
  27   11   12 1
  28   11   14 ar
  29   12   27 2
  30   13   15 1
  31   13   14 ar
  32   13   29 ar
  33   14   45 1
  34   15   16 1
  35   15   46 1
  36   15   47 1
  37   16   17 ar
  38   16   21 ar
  39   17   18 ar
  40   17   48 1
  41   18   19 ar
  42   18   49 1
  43   19   20 ar
  44   19   22 1
  45   20   21 ar
  46   20   50 1
  47   21   51 1
  48   22   23 1
  49   22   26 1
  50   23   24 2
  51   24   25 1
  52   24   52 1
  53   25   26 2
  54   25   53 1
  55   26   54 1
  56   28   29 ar
  57   28   55 1
  58   29   30 1
  59   30   31 1
  60   31   56 1
  61   31   57 1
  62   31   58 1

#	End of record

