#	Name: ASD01918370
#	Creating user name:	WinNT
#	Creation time:	15. 06. 2019 20:11

#	Modifying user name:	WinNT
#	Modification time:	15. 06. 2019 20:11

#	Program:	/corina/corina34_cracker 3.40 0067  02.08.2006

@<TRIPOS>MOLECULE
ASD01918370
  46   48    0    0    0
SMALL
NO_CHARGES


@<TRIPOS>ATOM
   1 H1             0.0021    -0.0041     0.0020 H       
   2 C2            -0.0127     1.0858     0.0080 C.3     
   3 C3            -0.7803     1.6661    -1.2021 C.3     
   4 C4            -1.4332     2.9590    -0.6700 C.3     
   5 C5            -0.9988     3.0384     0.8117 C.3     
   6 H6            -1.7640     3.4927     1.4412 H       
   7 C7             0.3308     3.8070     0.8718 C.3     
   8 C8             1.2809     3.2369    -0.1854 C.3     
   9 O9             0.7630     3.5125    -1.4884 O.3     
  10 C10            1.4033     1.6834    -0.0023 C.3     
  11 C11            2.6054     3.8631    -0.0423 C.1     
  12 C12            3.6617     4.3625     0.0718 C.1     
  13 C13            4.9502     4.9718     0.2110 C.ar    
  14 C14            5.1714     5.9230     1.2074 C.ar    
  15 C15            6.4154     6.5060     1.3366 C.ar    
  16 C16            7.4418     6.1494     0.4805 C.ar    
  17 C17            7.2289     5.2067    -0.5097 C.ar    
  18 C18            8.3530     4.8239    -1.4375 C.3     
  19 C19            5.9915     4.6123    -0.6457 C.ar    
  20 N20           -0.7119     1.6304     1.1970 N.am    
  21 C21           -1.0222     0.9959     2.3449 C.2     
  22 O22           -0.7215    -0.1719     2.4940 O.2     
  23 O23           -1.6655     1.6560     3.3263 O.3     
  24 C24           -1.9676     0.9097     4.5346 C.3     
  25 C25           -2.6943     1.8191     5.5275 C.3     
  26 H26           -0.0907     1.8956    -2.0145 H       
  27 H27           -1.5446     0.9654    -1.5383 H       
  28 H28           -1.0649     3.8247    -1.2205 H       
  29 H29           -2.5188     2.8945    -0.7444 H       
  30 H30            0.1515     4.8631     0.6700 H       
  31 H31            0.7742     3.6927     1.8609 H       
  32 H32            1.3146     3.1795    -2.2094 H       
  33 H33            1.8996     1.4627     0.9427 H       
  34 H34            1.9746     1.2546    -0.8256 H       
  35 H35            4.3706     6.2027     1.8759 H       
  36 H36            6.5880     7.2424     2.1074 H       
  37 H37            8.4134     6.6091     0.5853 H       
  38 H38            8.9059     3.9863    -1.0123 H       
  39 H39            7.9430     4.5348    -2.4052 H       
  40 H40            9.0233     5.6738    -1.5663 H       
  41 H41            5.8277     3.8736    -1.4163 H       
  42 H42           -2.6039     0.0599     4.2873 H       
  43 H43           -1.0403     0.5513     4.9816 H       
  44 H44           -2.0580     2.6688     5.7748 H       
  45 H45           -3.6215     2.1775     5.0804 H       
  46 H46           -2.9211     1.2588     6.4345 H       
@<TRIPOS>BOND
   1    1    2 1
   2    2   10 1
   3    2   20 1
   4    2    3 1
   5    3    4 1
   6    3   26 1
   7    3   27 1
   8    4    5 1
   9    4   28 1
  10    4   29 1
  11    5    6 1
  12    5    7 1
  13    5   20 1
  14    7    8 1
  15    7   30 1
  16    7   31 1
  17    8    9 1
  18    8   10 1
  19    8   11 1
  20    9   32 1
  21   10   33 1
  22   10   34 1
  23   11   12 3
  24   12   13 1
  25   13   19 ar
  26   13   14 ar
  27   14   15 ar
  28   14   35 1
  29   15   16 ar
  30   15   36 1
  31   16   17 ar
  32   16   37 1
  33   17   18 1
  34   17   19 ar
  35   18   38 1
  36   18   39 1
  37   18   40 1
  38   19   41 1
  39   20   21 am
  40   21   22 2
  41   21   23 1
  42   23   24 1
  43   24   25 1
  44   24   42 1
  45   24   43 1
  46   25   44 1
  47   25   45 1
  48   25   46 1

#	End of record

