#	Name: ASD01890309
#	Creating user name:	WinNT
#	Creation time:	15. 06. 2019 19:50

#	Modifying user name:	WinNT
#	Modification time:	15. 06. 2019 19:50

#	Program:	/corina/corina34_cracker 3.40 0067  02.08.2006

@<TRIPOS>MOLECULE
ASD01890309
  27   28    0    0    0
SMALL
NO_CHARGES


@<TRIPOS>ATOM
   1 C1            -0.0172     1.4136     0.0098 C.2     
   2 C2             0.0021    -0.0041     0.0020 C.2     
   3 C3             1.1822    -0.6642    -0.0128 C.2     
   4 O4             1.0285     2.0364     0.0032 O.2     
   5 C5            -1.3104     2.1370     0.0199 C.ar    
   6 C6            -1.3226     3.5307     0.0275 C.ar    
   7 C7            -2.5396     4.1929     0.0369 C.ar    
   8 C8            -3.7031     3.4386     0.0383 C.ar    
   9 C9            -3.6163     2.0559     0.0304 C.ar    
  10 N10           -2.4475     1.4524     0.0161 N.ar    
  11 C11            1.2021    -2.1341    -0.0209 C.ar    
  12 C12            2.4215    -2.8208    -0.0362 C.ar    
  13 C13            2.4323    -4.1988    -0.0438 C.ar    
  14 C14            1.2397    -4.9045    -0.0367 C.ar    
  15 C15            0.0284    -4.2315    -0.0215 C.ar    
  16 C16            0.0018    -2.8538    -0.0075 C.ar    
  17 Cl17           1.2632    -6.6403    -0.0474 Cl      
  18 H18           -0.9258    -0.5567     0.0079 H       
  19 H19            2.1100    -0.1115    -0.0187 H       
  20 H20           -0.3967     4.0866     0.0265 H       
  21 H21           -2.5810     5.2721     0.0433 H       
  22 H22           -4.6677     3.9243     0.0459 H       
  23 H23           -4.5206     1.4655     0.0318 H       
  24 H24            3.3518    -2.2722    -0.0425 H       
  25 H25            3.3725    -4.7301    -0.0556 H       
  26 H26           -0.8971    -4.7882    -0.0164 H       
  27 H27           -0.9429    -2.3307     0.0092 H       
@<TRIPOS>BOND
   1    1    2 1
   2    1    4 2
   3    1    5 1
   4    2    3 2
   5    2   18 1
   6    3   11 1
   7    3   19 1
   8    5    6 ar
   9    5   10 ar
  10    6    7 ar
  11    6   20 1
  12    7    8 ar
  13    7   21 1
  14    8    9 ar
  15    8   22 1
  16    9   10 ar
  17    9   23 1
  18   11   12 ar
  19   11   16 ar
  20   12   13 ar
  21   12   24 1
  22   13   14 ar
  23   13   25 1
  24   14   15 ar
  25   14   17 1
  26   15   16 ar
  27   15   26 1
  28   16   27 1

#	End of record

