#	Name: ASD02040015
#	Creating user name:	WinNT
#	Creation time:	15. 06. 2019 20:18

#	Modifying user name:	WinNT
#	Modification time:	15. 06. 2019 20:18

#	Program:	/corina/corina34_cracker 3.40 0067  02.08.2006

@<TRIPOS>MOLECULE
ASD02040015
  46   47    0    0    0
SMALL
NO_CHARGES


@<TRIPOS>ATOM
   1 P1            -0.0180     1.4758     0.0102 P.3     
   2 O2             0.0021    -0.0041     0.0020 O.2     
   3 O3             1.4924     2.0330    -0.0013 O.3     
   4 O4            -0.7967     2.0091    -1.2942 O.3     
   5 O5            -0.7716     1.9950     1.3348 O.3     
   6 P6            -0.8355     1.5534    -2.8378 P.3     
   7 O7             0.5284     1.1832    -3.2774 O.2     
   8 O8            -1.8139     0.2849    -2.9985 O.3     
   9 O9            -1.3795     2.7688    -3.7427 O.3     
  10 P10           -0.7058     1.5880     2.8911 P.3     
  11 O11            0.7082     1.4468     3.3047 O.2     
  12 O12           -1.4119     2.7331     3.7756 O.3     
  13 C13           -1.4248     2.7157     5.2044 C.3     
  14 O14           -3.5729     3.8667     5.3666 O.3     
  15 C15           -2.1753     3.9442     5.7226 C.3     
  16 C16           -2.1623     3.9704     7.2671 C.3     
  17 C17           -3.5578     4.5152     7.6451 C.3     
  18 C18           -4.2490     4.7536     6.2843 C.3     
  19 C19           -6.0386     3.1515     6.6573 C.2     
  20 N20           -7.3382     2.8112     6.7409 N.am    
  21 C21           -8.2975     3.7360     6.5343 C.2     
  22 C22           -7.9248     5.0673     6.2292 C.2     
  23 C23           -6.6139     5.3812     6.1519 C.2     
  24 N24           -5.6714     4.4131     6.3681 N.am    
  25 O25           -9.4736     3.4288     6.6089 O.2     
  26 O26           -5.1846     2.3080     6.8508 O.2     
  27 C27           -8.9773     6.1198     5.9933 C.3     
  28 O28           -1.1374     4.8445     7.7444 O.3     
  29 O29           -1.4721     0.1895     3.1129 O.3     
  30 H30            1.5557     2.9980     0.0033 H       
  31 H31           -2.7266     0.4555    -2.7283 H       
  32 H32           -1.4295     2.5647    -4.6866 H       
  33 H33           -1.9241     1.8114     5.5523 H       
  34 H34           -0.4007     2.7316     5.5772 H       
  35 H35           -1.7322     4.8567     5.3238 H       
  36 H36           -2.0241     2.9651     7.6650 H       
  37 H37           -4.1096     3.7792     8.2299 H       
  38 H38           -3.4661     5.4512     8.1961 H       
  39 H39           -4.1239     5.7903     5.9717 H       
  40 H40           -7.5856     1.8970     6.9504 H       
  41 H41           -6.3107     6.3916     5.9203 H       
  42 H42           -9.9665     5.6745     6.0987 H       
  43 H43           -8.8598     6.9210     6.7229 H       
  44 H44           -8.8666     6.5252     4.9875 H       
  45 H45           -1.0844     4.8989     8.7084 H       
  46 H46           -2.4058     0.2086     2.8622 H       
@<TRIPOS>BOND
   1    1    2 2
   2    1    3 1
   3    1    4 1
   4    1    5 1
   5    3   30 1
   6    4    6 1
   7    5   10 1
   8    6    7 2
   9    6    8 1
  10    6    9 1
  11    8   31 1
  12    9   32 1
  13   10   11 2
  14   10   12 1
  15   10   29 1
  16   12   13 1
  17   13   15 1
  18   13   33 1
  19   13   34 1
  20   14   15 1
  21   14   18 1
  22   15   16 1
  23   15   35 1
  24   16   17 1
  25   16   28 1
  26   16   36 1
  27   17   18 1
  28   17   37 1
  29   17   38 1
  30   18   24 1
  31   18   39 1
  32   19   20 am
  33   19   24 am
  34   19   26 2
  35   20   21 am
  36   20   40 1
  37   21   22 1
  38   21   25 2
  39   22   23 2
  40   22   27 1
  41   23   24 1
  42   23   41 1
  43   27   42 1
  44   27   43 1
  45   27   44 1
  46   28   45 1
  47   29   46 1

#	End of record

