#	Name: ASD01881477
#	Creating user name:	WinNT
#	Creation time:	15. 06. 2019 19:42

#	Modifying user name:	WinNT
#	Modification time:	15. 06. 2019 19:42

#	Program:	/corina/corina34_cracker 3.40 0067  02.08.2006

@<TRIPOS>MOLECULE
ASD01881477
  50   53    0    0    0
SMALL
NO_CHARGES


@<TRIPOS>ATOM
   1 C1             2.8026     1.3270     1.1056 C.2     
   2 C2             2.3357     0.0067     0.9909 C.2     
   3 C3             3.1742    -0.9574     0.4635 C.2     
   4 C4             4.4795    -0.5926     0.0526 C.2     
   5 C5             4.8977     0.6810     0.1757 C.2     
   6 N6             4.0761     1.6397     0.6952 N.pl3   
   7 N7             3.1058     3.4095     1.4467 N.2     
   8 N8             2.2570     2.4482     1.5516 N.2     
   9 C9             4.2259     2.9724     0.9318 C.2     
  10 C10            0.9418    -0.3531     1.4368 C.3     
  11 F11            0.9459    -0.6202     2.8100 F       
  12 F12            0.0774     0.7145     1.1719 F       
  13 F13            0.5083    -1.4875     0.7423 F       
  14 C14            5.4570     3.7944     0.6494 C.3     
  15 O15            5.3814     4.3258    -0.6750 O.3     
  16 C16            6.5062     5.1256    -1.0454 C.3     
  17 C17            6.3186     5.6387    -2.4745 C.3     
  18 C18            2.7121    -2.3586     0.3297 C.ar    
  19 C19            2.5681    -2.9295    -0.9351 C.ar    
  20 C20            2.1381    -4.2345    -1.0559 C.ar    
  21 C21            1.8487    -4.9801     0.0811 C.ar    
  22 C22            1.9908    -4.4141     1.3407 C.ar    
  23 C23            2.4258    -3.1117     1.4682 C.ar    
  24 O24            1.4253    -6.2654    -0.0407 O.3     
  25 C25           -0.6061    -7.5431     2.6938 C.ar    
  26 C26           -0.2642    -6.8614     1.5438 C.ar    
  27 C27            1.0498    -6.9220     1.0862 C.ar    
  28 C28            1.9688    -7.6744     1.8144 C.ar    
  29 C29            1.5476    -8.3274     2.9542 C.ar    
  30 N30            0.2933    -8.2454     3.3562 N.ar    
  31 C31           -2.0233    -7.4801     3.2025 C.3     
  32 Cl32           1.9578    -4.9462    -2.6290 Cl      
  33 H33            5.1419    -1.3388    -0.3607 H       
  34 H34            5.8952     0.9478    -0.1406 H       
  35 H35            5.5196     4.6130     1.3663 H       
  36 H36            6.3424     3.1650     0.7383 H       
  37 H37            6.5906     5.9718    -0.3636 H       
  38 H38            7.4134     4.5237    -0.9916 H       
  39 H39            7.1766     6.2488    -2.7571 H       
  40 H40            6.2342     4.7925    -3.1563 H       
  41 H41            5.4114     6.2405    -2.5283 H       
  42 H42            2.7926    -2.3503    -1.8186 H       
  43 H43            1.7648    -4.9959     2.2220 H       
  44 H44            2.5403    -2.6737     2.4488 H       
  45 H45           -1.0052    -6.2886     1.0060 H       
  46 H46            2.9967    -7.7456     1.4908 H       
  47 H47            2.2533    -8.9129     3.5248 H       
  48 H48           -2.6032    -8.2921     2.7639 H       
  49 H49           -2.0243    -7.5780     4.2881 H       
  50 H50           -2.4673    -6.5245     2.9235 H       
@<TRIPOS>BOND
   1    1    2 1
   2    1    6 1
   3    1    8 2
   4    2    3 2
   5    2   10 1
   6    3    4 1
   7    3   18 1
   8    4    5 2
   9    4   33 1
  10    5    6 1
  11    5   34 1
  12    6    9 1
  13    7    8 1
  14    7    9 2
  15    9   14 1
  16   10   11 1
  17   10   12 1
  18   10   13 1
  19   14   15 1
  20   14   35 1
  21   14   36 1
  22   15   16 1
  23   16   17 1
  24   16   37 1
  25   16   38 1
  26   17   39 1
  27   17   40 1
  28   17   41 1
  29   18   19 ar
  30   18   23 ar
  31   19   20 ar
  32   19   42 1
  33   20   21 ar
  34   20   32 1
  35   21   22 ar
  36   21   24 1
  37   22   23 ar
  38   22   43 1
  39   23   44 1
  40   24   27 1
  41   25   26 ar
  42   25   30 ar
  43   25   31 1
  44   26   27 ar
  45   26   45 1
  46   27   28 ar
  47   28   29 ar
  48   28   46 1
  49   29   30 ar
  50   29   47 1
  51   31   48 1
  52   31   49 1
  53   31   50 1

#	End of record

