#	Name: ASD00360021
#	Creating user name:	WinNT
#	Creation time:	15. 06. 2019 18:35

#	Modifying user name:	WinNT
#	Modification time:	15. 06. 2019 18:35

#	Program:	/corina/corina34_cracker 3.40 0067  02.08.2006

@<TRIPOS>MOLECULE
ASD00360021
  31   33    0    0    0
SMALL
NO_CHARGES


@<TRIPOS>ATOM
   1 C1            -0.0167     1.3807     0.0096 C.ar    
   2 C2             0.0021    -0.0041     0.0020 C.ar    
   3 C3             1.2175    -0.6747    -0.0161 C.ar    
   4 C4             2.4131     0.0330    -0.0316 C.ar    
   5 C5             2.4129     1.4147    -0.0277 C.ar    
   6 C6             1.1921     2.0923     0.0019 C.ar    
   7 C7             1.1775     3.5667     0.0382 C.2     
   8 C8             3.7245     2.1388    -0.0706 C.3     
   9 C9             3.6393     3.5699     0.3658 C.ar    
  10 C10            2.4276     4.2593     0.4127 C.ar    
  11 C11            2.3909     5.6005     0.8141 C.ar    
  12 C12            4.8003     4.2290     0.7299 C.ar    
  13 C13            4.7637     5.5529     1.1301 C.ar    
  14 C14            3.5680     6.2422     1.1710 C.ar    
  15 O15            1.2380    -2.0318    -0.0181 O.3     
  16 O16            0.1694     4.1919    -0.2318 O.2     
  17 O17            1.2110     6.2686     0.8534 O.3     
  18 O18           -1.1991     2.0461     0.0188 O.3     
  19 C19            6.0410     6.2495     1.5230 C.3     
  20 Cl20          -1.4867    -0.8968     0.0156 Cl      
  21 H21            3.3513    -0.5018    -0.0466 H       
  22 H22            4.4305     1.6189     0.5769 H       
  23 H23            4.1056     2.1083    -1.0914 H       
  24 H24            5.7441     3.7047     0.7018 H       
  25 H25            3.5491     7.2766     1.4810 H       
  26 H26            1.2314    -2.4239    -0.9020 H       
  27 H27            0.7529     6.2082     1.7028 H       
  28 H28           -1.5377     2.2342     0.9049 H       
  29 H29            6.4859     6.7156     0.6438 H       
  30 H30            5.8233     7.0141     2.2687 H       
  31 H31            6.7377     5.5226     1.9406 H       
@<TRIPOS>BOND
   1    1    2 ar
   2    1    6 ar
   3    1   18 1
   4    2    3 ar
   5    2   20 1
   6    3    4 ar
   7    3   15 1
   8    4    5 ar
   9    4   21 1
  10    5    6 ar
  11    5    8 1
  12    6    7 1
  13    7   10 1
  14    7   16 2
  15    8    9 1
  16    8   22 1
  17    8   23 1
  18    9   12 ar
  19    9   10 ar
  20   10   11 ar
  21   11   14 ar
  22   11   17 1
  23   12   13 ar
  24   12   24 1
  25   13   14 ar
  26   13   19 1
  27   14   25 1
  28   15   26 1
  29   17   27 1
  30   18   28 1
  31   19   29 1
  32   19   30 1
  33   19   31 1

#	End of record

