#	Name: ASD01911490
#	Creating user name:	WinNT
#	Creation time:	15. 06. 2019 19:57

#	Modifying user name:	WinNT
#	Modification time:	15. 06. 2019 19:57

#	Program:	/corina/corina34_cracker 3.40 0067  02.08.2006

@<TRIPOS>MOLECULE
ASD01911490
  43   44    0    0    0
SMALL
NO_CHARGES


@<TRIPOS>ATOM
   1 O1             1.5752     1.2090     0.9268 O.3     
   2 C2             1.4876    -0.1234     0.7917 C.2     
   3 N3             1.0816    -0.7176    -0.3355 N.am    
   4 C4             0.7394     0.0245    -1.5462 C.3     
   5 C5             0.4474     1.4865    -1.1967 C.3     
   6 C6             1.5754     2.0019    -0.2923 C.3     
   7 O7             1.7918    -0.8226     1.7376 O.2     
   8 C8             0.9810    -2.1069    -0.3561 C.ar    
   9 C9            -0.2285    -2.7122    -0.0281 C.ar    
  10 C10           -0.3215    -4.0895    -0.0505 C.ar    
  11 C11            0.8153    -4.8280    -0.4055 C.ar    
  12 C12            1.9915    -4.1494    -0.7212 C.ar    
  13 N13            2.0358    -2.8329    -0.6926 N.ar    
  14 C14            0.7697    -6.2588    -0.4429 C.1     
  15 C15            0.7322    -7.4318    -0.4736 C.1     
  16 Si16           0.6716    -9.3301    -0.5233 Si      
  17 C17            2.3383    -9.9916    -1.0288 C.3     
  18 C18            0.2310    -9.9818     1.1654 C.3     
  19 C19           -0.6138    -9.8784    -1.7553 C.3     
  20 C20            1.3328     3.4736     0.0485 C.3     
  21 C21            2.9200     1.8510    -1.0066 C.3     
  22 H22            1.5735    -0.0207    -2.2464 H       
  23 H23           -0.1425    -0.4208    -2.0066 H       
  24 H24            0.4078     2.0813    -2.1093 H       
  25 H25           -0.5052     1.5553    -0.6715 H       
  26 H26           -1.0846    -2.1113     0.2411 H       
  27 H27           -1.2476    -4.5856     0.1998 H       
  28 H28            2.8739    -4.7083    -0.9962 H       
  29 H29            3.0904    -9.6709    -0.3080 H       
  30 H30            2.3035   -11.0807    -1.0573 H       
  31 H31            2.5961    -9.6104    -2.0169 H       
  32 H32           -0.7441    -9.5948     1.4612 H       
  33 H33            0.1963   -11.0709     1.1369 H       
  34 H34            0.9831    -9.6611     1.8863 H       
  35 H35           -0.3560    -9.4971    -2.7434 H       
  36 H36           -0.6486   -10.9675    -1.7839 H       
  37 H37           -1.5889    -9.4914    -1.4596 H       
  38 H38            2.1232     3.8284     0.7100 H       
  39 H39            1.3338     4.0637    -0.8679 H       
  40 H40            0.3686     3.5771     0.5463 H       
  41 H41            3.0824     0.8028    -1.2577 H       
  42 H42            2.9154     2.4468    -1.9193 H       
  43 H43            3.7201     2.1959    -0.3516 H       
@<TRIPOS>BOND
   1    1    2 1
   2    1    6 1
   3    2    3 am
   4    2    7 2
   5    3    4 1
   6    3    8 1
   7    4    5 1
   8    4   22 1
   9    4   23 1
  10    5    6 1
  11    5   24 1
  12    5   25 1
  13    6   20 1
  14    6   21 1
  15    8    9 ar
  16    8   13 ar
  17    9   10 ar
  18    9   26 1
  19   10   11 ar
  20   10   27 1
  21   11   12 ar
  22   11   14 1
  23   12   13 ar
  24   12   28 1
  25   14   15 3
  26   15   16 1
  27   16   17 1
  28   16   18 1
  29   16   19 1
  30   17   29 1
  31   17   30 1
  32   17   31 1
  33   18   32 1
  34   18   33 1
  35   18   34 1
  36   19   35 1
  37   19   36 1
  38   19   37 1
  39   20   38 1
  40   20   39 1
  41   20   40 1
  42   21   41 1
  43   21   42 1
  44   21   43 1

#	End of record

