#	Name: ASD01884810
#	Creating user name:	WinNT
#	Creation time:	15. 06. 2019 19:48

#	Modifying user name:	WinNT
#	Modification time:	15. 06. 2019 19:48

#	Program:	/corina/corina34_cracker 3.40 0067  02.08.2006

@<TRIPOS>MOLECULE
ASD01884810
  59   63    0    0    0
SMALL
NO_CHARGES


@<TRIPOS>ATOM
   1 C1            -0.0167     1.3776     0.0096 C.ar    
   2 C2             0.0021    -0.0041     0.0020 C.ar    
   3 C3            -1.1810    -0.7162     0.0099 C.ar    
   4 C4            -2.4036    -0.0455     0.0257 C.ar    
   5 C5            -2.4326     1.3446     0.0334 C.ar    
   6 C6            -1.2364     2.0614     0.0308 C.ar    
   7 C7            -3.6728    -0.8148     0.0337 C.ar    
   8 C8            -4.8952    -0.1451     0.0494 C.ar    
   9 C9            -6.0774    -0.8596     0.0574 C.ar    
  10 C10           -6.0560    -2.2400     0.0498 C.ar    
  11 C11           -4.8387    -2.9210     0.0336 C.ar    
  12 C12           -3.6447    -2.2059     0.0197 C.ar    
  13 C13           -4.8169    -4.4037     0.0260 C.ar    
  14 C14           -3.5993    -5.0840     0.0098 C.ar    
  15 C15           -6.0153    -5.1204     0.0409 C.ar    
  16 C16           -5.9910    -6.4927     0.0342 C.ar    
  17 C17           -4.7730    -7.1802     0.0126 C.ar    
  18 C18           -3.5751    -6.4605     0.0031 C.ar    
  19 C19           -7.0732    -7.5436     0.0458 C.3     
  20 N20           -6.3863    -8.8400     0.0295 N.am    
  21 C21           -5.0595    -8.6267     0.0104 C.2     
  22 O22           -4.2157    -9.5017    -0.0064 O.2     
  23 C23           -7.0394   -10.1514     0.0342 C.3     
  24 C24           -7.2893   -10.6018    -1.4065 C.3     
  25 Cl25           1.4752     2.2653     0.0001 Cl      
  26 C26           -7.8566   -12.0228    -1.4055 C.3     
  27 C27           -8.1066   -12.4731    -2.8462 C.3     
  28 C28           -9.1069   -11.5251    -3.5106 C.3     
  29 C29           -8.5397   -10.1041    -3.5116 C.3     
  30 C30           -8.2897    -9.6538    -2.0709 C.3     
  31 C31           -1.2577     3.5379     0.0394 C.2     
  32 O32           -0.2145     4.1604     0.0371 O.2     
  33 O33           -2.4339     4.1945     0.0499 O.3     
  34 H34            0.9458    -0.5291    -0.0105 H       
  35 H35           -1.1594    -1.7960     0.0036 H       
  36 H36           -3.3777     1.8672     0.0457 H       
  37 H37           -4.9180     0.9347     0.0557 H       
  38 H38           -7.0221    -0.3363     0.0699 H       
  39 H39           -6.9833    -2.7936     0.0568 H       
  40 H40           -2.6998    -2.7288     0.0068 H       
  41 H41           -2.6728    -4.5292     0.0020 H       
  42 H42           -6.9592    -4.5960     0.0579 H       
  43 H43           -2.6306    -6.9840    -0.0135 H       
  44 H44           -7.6761    -7.4505     0.9491 H       
  45 H45           -7.7032    -7.4423    -0.8379 H       
  46 H46           -6.3967   -10.8756     0.5349 H       
  47 H47           -7.9898   -10.0821     0.5633 H       
  48 H48           -6.3506   -10.5857    -1.9603 H       
  49 H49           -7.1439   -12.6981    -0.9322 H       
  50 H50           -8.7953   -12.0389    -0.8518 H       
  51 H51           -7.1678   -12.4570    -3.4000 H       
  52 H52           -8.5107   -13.4854    -2.8455 H       
  53 H53           -9.2850   -11.8460    -4.5370 H       
  54 H54          -10.0457   -11.5412    -2.9568 H       
  55 H55           -7.6010   -10.0880    -4.0654 H       
  56 H56           -9.2524    -9.4288    -3.9849 H       
  57 H57           -9.2284    -9.6699    -1.5171 H       
  58 H58           -7.8856    -8.6415    -2.0716 H       
  59 H59           -2.3973     5.1608     0.0553 H       
@<TRIPOS>BOND
   1    1    2 ar
   2    1   25 1
   3    1    6 ar
   4    2    3 ar
   5    2   34 1
   6    3    4 ar
   7    3   35 1
   8    4    5 ar
   9    4    7 1
  10    5    6 ar
  11    5   36 1
  12    6   31 1
  13    7    8 ar
  14    7   12 ar
  15    8    9 ar
  16    8   37 1
  17    9   10 ar
  18    9   38 1
  19   10   11 ar
  20   10   39 1
  21   11   12 ar
  22   11   13 1
  23   12   40 1
  24   13   14 ar
  25   13   15 ar
  26   14   18 ar
  27   14   41 1
  28   15   16 ar
  29   15   42 1
  30   16   17 ar
  31   16   19 1
  32   17   18 ar
  33   17   21 1
  34   18   43 1
  35   19   20 1
  36   19   44 1
  37   19   45 1
  38   20   21 am
  39   20   23 1
  40   21   22 2
  41   23   24 1
  42   23   46 1
  43   23   47 1
  44   24   26 1
  45   24   30 1
  46   24   48 1
  47   26   27 1
  48   26   49 1
  49   26   50 1
  50   27   28 1
  51   27   51 1
  52   27   52 1
  53   28   29 1
  54   28   53 1
  55   28   54 1
  56   29   30 1
  57   29   55 1
  58   29   56 1
  59   30   57 1
  60   30   58 1
  61   31   32 2
  62   31   33 1
  63   33   59 1

#	End of record

