#	Name: ASD01811164
#	Creating user name:	WinNT
#	Creation time:	15. 06. 2019 19:26

#	Modifying user name:	WinNT
#	Modification time:	15. 06. 2019 19:26

#	Program:	/corina/corina34_cracker 3.40 0067  02.08.2006

@<TRIPOS>MOLECULE
ASD01811164
  70   75    0    0    0
SMALL
NO_CHARGES


@<TRIPOS>ATOM
   1 C1            -0.1626     1.3011    -0.3120 C.ar    
   2 C2            -0.0106     0.0466     0.2833 C.ar    
   3 C3             1.3410    -0.4721     0.5840 C.2     
   4 N4             1.7338    -1.6600     0.0830 N.am    
   5 O5             2.0979     0.1729     1.2830 O.2     
   6 C6             3.0956    -2.1586     0.3189 C.3     
   7 C7            -1.1355    -0.7145     0.5935 C.ar    
   8 C8            -2.4053    -0.2183     0.3073 C.ar    
   9 C9            -2.5430     1.0372    -0.2878 C.ar    
  10 C10           -1.4241     1.7893    -0.5876 C.ar    
  11 C11           -3.6051    -1.0199     0.6328 C.2     
  12 C12            3.7347    -2.5040    -1.0298 C.3     
  13 C13            2.8294    -3.4811    -1.7835 C.3     
  14 C14            1.4728    -2.8232    -2.0462 C.3     
  15 C15            0.8063    -2.4840    -0.7043 C.3     
  16 C16            3.4713    -3.8496    -3.0962 C.ar    
  17 C17            3.7781    -5.1717    -3.3655 C.ar    
  18 C18            4.3653    -5.5161    -4.5653 C.ar    
  19 C19            4.6500    -4.5271    -5.5089 C.ar    
  20 C20            4.3377    -3.1949    -5.2305 C.ar    
  21 C21            3.7459    -2.8652    -4.0289 C.ar    
  22 N22           -4.8440    -0.6020     0.5233 N.2     
  23 C23            5.2599    -4.8773    -6.7563 C.1     
  24 N24            5.7438    -5.1551    -7.7458 N.1     
  25 C25           -5.6886    -1.5789     0.9000 C.ar    
  26 C26           -4.9053    -2.6911     1.2727 C.ar    
  27 N27           -3.5894    -2.3097     1.0875 N.pl3   
  28 C28           -7.0810    -1.6924     0.9851 C.ar    
  29 C29           -7.6243    -2.8851     1.4290 C.ar    
  30 N30           -6.8497    -3.9076     1.7699 N.ar    
  31 C31           -5.5334    -3.8454     1.7060 C.ar    
  32 N32           -9.0089    -3.0148     1.5201 N.3     
  33 C33           -9.3829    -4.3539     2.0108 C.3     
  34 C34          -10.2429    -4.1533     3.2764 C.3     
  35 C35          -10.7808    -2.7080     3.1080 C.3     
  36 C36           -9.5768    -2.0023     2.4357 C.3     
  37 C37            1.0529     2.1260    -0.6483 C.3     
  38 C38           -3.9160     1.5753    -0.5985 C.3     
  39 H39            3.6855    -1.3887     0.8163 H       
  40 H40            3.0549    -3.0511     0.9432 H       
  41 H41           -1.0235    -1.6853     1.0535 H       
  42 H42           -1.5362     2.7598    -1.0479 H       
  43 H43            3.8575    -1.5945    -1.6178 H       
  44 H44            4.7085    -2.9646    -0.8636 H       
  45 H45            2.6870    -4.3802    -1.1840 H       
  46 H46            1.6170    -1.9107    -2.6246 H       
  47 H47            0.8368    -3.5110    -2.6034 H       
  48 H48            0.5796    -3.4042    -0.1659 H       
  49 H49           -0.1133    -1.9270    -0.8835 H       
  50 H50            3.5577    -5.9356    -2.6346 H       
  51 H51            4.6046    -6.5484    -4.7741 H       
  52 H52            4.5556    -2.4249    -5.9558 H       
  53 H53            3.5038    -1.8352    -3.8122 H       
  54 H54           -2.8030    -2.8526     1.2543 H       
  55 H55           -7.7188    -0.8653     0.7102 H       
  56 H56           -4.9417    -4.7021     1.9930 H       
  57 H57           -9.9598    -4.8798     1.2501 H       
  58 H58           -8.4862    -4.9221     2.2581 H       
  59 H59          -11.0641    -4.8696     3.3019 H       
  60 H60           -9.6311    -4.2346     4.1749 H       
  61 H61          -11.6561    -2.6903     2.4586 H       
  62 H62          -11.0055    -2.2597     4.0758 H       
  63 H63           -8.8400    -1.7125     3.1849 H       
  64 H64           -9.9127    -1.1299     1.8753 H       
  65 H65            1.4002     1.8700    -1.6493 H       
  66 H66            0.7949     3.1844    -0.6129 H       
  67 H67            1.8429     1.9203     0.0740 H       
  68 H68           -4.3378     2.0332     0.2962 H       
  69 H69           -3.8431     2.3222    -1.3890 H       
  70 H70           -4.5600     0.7598    -0.9274 H       
@<TRIPOS>BOND
   1    1    2 ar
   2    1   37 1
   3    1   10 ar
   4    2    3 1
   5    2    7 ar
   6    3    4 am
   7    3    5 2
   8    4    6 1
   9    4   15 1
  10    6   12 1
  11    6   39 1
  12    6   40 1
  13    7    8 ar
  14    7   41 1
  15    8    9 ar
  16    8   11 1
  17    9   10 ar
  18    9   38 1
  19   10   42 1
  20   11   22 2
  21   11   27 1
  22   12   13 1
  23   12   43 1
  24   12   44 1
  25   13   14 1
  26   13   16 1
  27   13   45 1
  28   14   15 1
  29   14   46 1
  30   14   47 1
  31   15   48 1
  32   15   49 1
  33   16   17 ar
  34   16   21 ar
  35   17   18 ar
  36   17   50 1
  37   18   19 ar
  38   18   51 1
  39   19   20 ar
  40   19   23 1
  41   20   21 ar
  42   20   52 1
  43   21   53 1
  44   22   25 1
  45   23   24 3
  46   25   26 ar
  47   25   28 ar
  48   26   27 1
  49   26   31 ar
  50   27   54 1
  51   28   29 ar
  52   28   55 1
  53   29   30 ar
  54   29   32 1
  55   30   31 ar
  56   31   56 1
  57   32   33 1
  58   32   36 1
  59   33   34 1
  60   33   57 1
  61   33   58 1
  62   34   35 1
  63   34   59 1
  64   34   60 1
  65   35   36 1
  66   35   61 1
  67   35   62 1
  68   36   63 1
  69   36   64 1
  70   37   65 1
  71   37   66 1
  72   37   67 1
  73   38   68 1
  74   38   69 1
  75   38   70 1

#	End of record

