#	Name: ASD01917445
#	Creating user name:	WinNT
#	Creation time:	15. 06. 2019 20:09

#	Modifying user name:	WinNT
#	Modification time:	15. 06. 2019 20:09

#	Program:	/corina/corina34_cracker 3.40 0067  02.08.2006

@<TRIPOS>MOLECULE
ASD01917445
  47   51    0    0    0
SMALL
NO_CHARGES


@<TRIPOS>ATOM
   1 C1            -0.0171     1.4097     0.0098 C.ar    
   2 C2             0.0021    -0.0041     0.0020 C.ar    
   3 C3            -1.1911    -0.7249     0.0414 C.ar    
   4 C4            -2.3838    -0.0625     0.0741 C.ar    
   5 C5            -2.4208     1.3388     0.0659 C.ar    
   6 C6            -1.2413     2.0760     0.0357 C.ar    
   7 N7             1.1596     2.0750     0.0021 N.2     
   8 C8             2.3197     1.4677    -0.0397 C.2     
   9 N9             2.4203     0.1197    -0.1574 N.am    
  10 C10            1.3107    -0.6630    -0.0625 C.2     
  11 O11            1.4020    -1.8765    -0.0317 O.2     
  12 C12           -3.7219     2.0378     0.0898 C.2     
  13 N13           -3.9058     3.3394     0.0849 N.2     
  14 N14           -5.1671     3.5923     0.1111 N.2     
  15 C15           -5.8379     2.4623     0.1337 C.2     
  16 O16           -4.9386     1.4580     0.1148 O.3     
  17 C17           -7.3082     2.3189     0.1648 C.ar    
  18 N18           -7.8521     1.1070     0.1765 N.ar    
  19 C19           -9.1576     0.9369     0.2041 C.ar    
  20 C20          -10.0156     2.0220     0.2221 C.ar    
  21 C21           -9.4900     3.3065     0.2108 C.ar    
  22 C22           -8.1147     3.4576     0.1874 C.ar    
  23 C23            3.5355     2.3454     0.1021 C.3     
  24 C24            4.7921     1.6931    -0.4307 C.3     
  25 C25            4.8967     0.2367    -0.0268 C.3     
  26 C26            3.6799    -0.5616    -0.4366 C.3     
  27 C27            6.1351    -0.3731    -0.6866 C.3     
  28 C28            5.0557     0.1536     1.4926 C.3     
  29 H29           -1.1713    -1.8047     0.0456 H       
  30 H30           -3.3067    -0.6225     0.1063 H       
  31 H31           -1.2739     3.1555     0.0324 H       
  32 H32           -9.5642    -0.0636     0.2124 H       
  33 H33          -11.0847     1.8709     0.2443 H       
  34 H34          -10.1399     4.1690     0.2240 H       
  35 H35           -7.6720     4.4427     0.1785 H       
  36 H36            3.3639     3.2746    -0.4412 H       
  37 H37            3.6801     2.5785     1.1570 H       
  38 H38            4.7909     1.7592    -1.5187 H       
  39 H39            5.6594     2.2299    -0.0464 H       
  40 H40            3.6892    -1.5119     0.0972 H       
  41 H41            3.7384    -0.7638    -1.5061 H       
  42 H42            7.0242     0.1650    -0.3579 H       
  43 H43            6.2193    -1.4219    -0.4019 H       
  44 H44            6.0442    -0.2970    -1.7702 H       
  45 H45            4.1897     0.6079     1.9739 H       
  46 H46            5.1320    -0.8914     1.7933 H       
  47 H47            5.9588     0.6849     1.7930 H       
@<TRIPOS>BOND
   1    1    2 ar
   2    1    7 1
   3    1    6 ar
   4    2    3 ar
   5    2   10 1
   6    3    4 ar
   7    3   29 1
   8    4    5 ar
   9    4   30 1
  10    5    6 ar
  11    5   12 1
  12    6   31 1
  13    7    8 2
  14    8    9 1
  15    8   23 1
  16    9   10 am
  17    9   26 1
  18   10   11 2
  19   12   13 2
  20   12   16 1
  21   13   14 1
  22   14   15 2
  23   15   16 1
  24   15   17 1
  25   17   18 ar
  26   17   22 ar
  27   18   19 ar
  28   19   20 ar
  29   19   32 1
  30   20   21 ar
  31   20   33 1
  32   21   22 ar
  33   21   34 1
  34   22   35 1
  35   23   24 1
  36   23   36 1
  37   23   37 1
  38   24   25 1
  39   24   38 1
  40   24   39 1
  41   25   26 1
  42   25   27 1
  43   25   28 1
  44   26   40 1
  45   26   41 1
  46   27   42 1
  47   27   43 1
  48   27   44 1
  49   28   45 1
  50   28   46 1
  51   28   47 1

#	End of record

