#	Name: ASD02448146
#	Creating user name:	WinNT
#	Creation time:	15. 06. 2019 20:21

#	Modifying user name:	WinNT
#	Modification time:	15. 06. 2019 20:21

#	Program:	/corina/corina34_cracker 3.40 0067  02.08.2006

@<TRIPOS>MOLECULE
ASD02448146
  78   84    0    0    0
SMALL
NO_CHARGES


@<TRIPOS>ATOM
   1 C1            -0.0166     1.3762     0.0096 C.ar    
   2 C2             0.0021    -0.0041     0.0020 C.ar    
   3 C3             1.2133    -0.6822    -0.0132 C.ar    
   4 C4             2.4071     0.0281    -0.0209 C.ar    
   5 C5             2.3888     1.4096    -0.0133 C.ar    
   6 C6             1.1768     2.0874     0.0020 C.ar    
   7 N7             1.1576     3.4854     0.0097 N.am    
   8 C8             0.0905     4.3760    -0.4649 C.3     
   9 C9             0.4590     5.8126    -0.2795 C.2     
  10 N10            1.6640     6.0167     0.2713 N.am    
  11 S11            2.3385     4.5239     0.5669 S.o2    
  12 O12           -0.2747     6.7227    -0.6027 O.2     
  13 O13            2.4118     4.3688     1.9775 O.2     
  14 O14            3.4522     4.3870    -0.3049 O.2     
  15 N15            1.2317    -2.0859    -0.0205 N.pl3   
  16 C16            0.7671    -2.8984    -1.0194 C.2     
  17 C17            1.7192    -2.8900     0.9600 C.2     
  18 N18            1.5654    -4.1341     0.6006 N.2     
  19 C19            0.9816    -4.1775    -0.6141 C.2     
  20 C20            0.6350    -5.4041    -1.3732 C.ar    
  21 C21            0.9129    -6.6613    -0.8366 C.ar    
  22 C22            0.0256    -5.3045    -2.6221 C.ar    
  23 C23           -0.2949    -6.4486    -3.3246 C.ar    
  24 C24           -0.0125    -7.6940    -2.7906 C.ar    
  25 C25            0.5881    -7.7996    -1.5477 C.ar    
  26 C26            1.2646    -2.2848     3.3016 C.ar    
  27 C27            0.9516    -3.3622     4.1106 C.ar    
  28 C28            0.6007    -1.0812     3.4564 C.ar    
  29 C29           -0.3782    -0.9491     4.4203 C.ar    
  30 C30           -0.6976    -2.0312     5.2380 C.ar    
  31 C31           -0.0263    -3.2416     5.0771 C.ar    
  32 C32           -1.7488    -1.8951     6.2765 C.ar    
  33 Cl33          -0.4190    -9.1286    -3.6795 Cl      
  34 Cl34           1.6660    -6.7947     0.7219 Cl      
  35 C35            2.3373    -2.4209     2.2518 C.3     
  36 C36           -2.0682    -2.9771     7.0942 C.ar    
  37 C37           -3.0465    -2.8448     8.0587 C.ar    
  38 C38           -3.7094    -1.6408     8.2144 C.ar    
  39 C39           -3.3964    -0.5634     7.4054 C.ar    
  40 C40           -2.4161    -0.6830     6.4412 C.ar    
  41 C41           -4.7770    -1.5025     9.2690 C.3     
  42 C42           -4.3807    -0.4014    10.2546 C.3     
  43 C43           -5.4646    -0.2610    11.3253 C.3     
  44 C44           -6.7937     0.1035    10.6608 C.3     
  45 C45           -7.1900    -0.9977     9.6752 C.3     
  46 C46           -6.1061    -1.1380     8.6045 C.3     
  47 Cl47           3.9218    -0.8199    -0.0394 Cl      
  48 H48           -0.9592     1.9033     0.0169 H       
  49 H49           -0.9259    -0.5566     0.0083 H       
  50 H50            3.3167     1.9622    -0.0188 H       
  51 H51           -0.0878     4.1869    -1.5235 H       
  52 H52           -0.8229     4.1670     0.0919 H       
  53 H53            2.0678     6.8771     0.4651 H       
  54 H54            0.3168    -2.5838    -1.9493 H       
  55 H55           -0.1960    -4.3335    -3.0398 H       
  56 H56           -0.7673    -6.3719    -4.2928 H       
  57 H57            0.8067    -8.7736    -1.1355 H       
  58 H58            1.4730    -4.2997     3.9855 H       
  59 H59            0.8491    -0.2432     2.8220 H       
  60 H60           -0.8954    -0.0088     4.5408 H       
  61 H61           -0.2702    -4.0835     5.7080 H       
  62 H62            3.0803    -3.1461     2.5835 H       
  63 H63            2.8171    -1.4548     2.0953 H       
  64 H64           -1.5514    -3.9177     6.9732 H       
  65 H65           -3.2951    -3.6829     8.6929 H       
  66 H66           -3.9173     0.3743     7.5310 H       
  67 H67           -2.1725     0.1588     5.8101 H       
  68 H68           -4.8846    -2.4466     9.8030 H       
  69 H69           -3.4338    -0.6610    10.7280 H       
  70 H70           -4.2731     0.5427     9.7206 H       
  71 H71           -5.5722    -1.2051    11.8593 H       
  72 H72           -5.1823     0.5234    12.0275 H       
  73 H73           -7.5659     0.2035    11.4236 H       
  74 H74           -6.6861     1.0476    10.1268 H       
  75 H75           -7.2976    -1.9418    10.2093 H       
  76 H76           -8.1369    -0.7380     9.2018 H       
  77 H77           -5.9985    -0.1939     8.0705 H       
  78 H78           -6.3884    -1.9225     7.9024 H       
@<TRIPOS>BOND
   1    1    2 ar
   2    1    6 ar
   3    1   48 1
   4    2    3 ar
   5    2   49 1
   6    3    4 ar
   7    3   15 1
   8    4    5 ar
   9    4   47 1
  10    5    6 ar
  11    5   50 1
  12    6    7 1
  13    7    8 1
  14    7   11 am
  15    8    9 1
  16    8   51 1
  17    8   52 1
  18    9   10 am
  19    9   12 2
  20   10   11 am
  21   10   53 1
  22   11   13 2
  23   11   14 2
  24   15   16 1
  25   15   17 1
  26   16   19 2
  27   16   54 1
  28   17   18 2
  29   17   35 1
  30   18   19 1
  31   19   20 1
  32   20   21 ar
  33   20   22 ar
  34   21   34 1
  35   21   25 ar
  36   22   23 ar
  37   22   55 1
  38   23   24 ar
  39   23   56 1
  40   24   25 ar
  41   24   33 1
  42   25   57 1
  43   26   27 ar
  44   26   28 ar
  45   26   35 1
  46   27   31 ar
  47   27   58 1
  48   28   29 ar
  49   28   59 1
  50   29   30 ar
  51   29   60 1
  52   30   31 ar
  53   30   32 1
  54   31   61 1
  55   32   36 ar
  56   32   40 ar
  57   35   62 1
  58   35   63 1
  59   36   37 ar
  60   36   64 1
  61   37   38 ar
  62   37   65 1
  63   38   39 ar
  64   38   41 1
  65   39   40 ar
  66   39   66 1
  67   40   67 1
  68   41   42 1
  69   41   46 1
  70   41   68 1
  71   42   43 1
  72   42   69 1
  73   42   70 1
  74   43   44 1
  75   43   71 1
  76   43   72 1
  77   44   45 1
  78   44   73 1
  79   44   74 1
  80   45   46 1
  81   45   75 1
  82   45   76 1
  83   46   77 1
  84   46   78 1

#	End of record

