#	Name: ASD02408004
#	Creating user name:	WinNT
#	Creation time:	15. 06. 2019 20:20

#	Modifying user name:	WinNT
#	Modification time:	15. 06. 2019 20:20

#	Program:	/corina/corina34_cracker 3.40 0067  02.08.2006

@<TRIPOS>MOLECULE
ASD02408004
  40   42    0    0    0
SMALL
NO_CHARGES


@<TRIPOS>ATOM
   1 C1             0.5438     0.6200    -0.0811 C.ar    
   2 C2             0.8133    -0.7159    -0.3128 C.ar    
   3 C3             1.6681     1.6233    -0.0625 C.3     
   4 C4             1.8793     2.1669    -1.4521 C.2     
   5 N5             2.8453     3.0841    -1.6526 N.am    
   6 N6             1.1237     1.7293    -2.4224 N.2     
   7 C7             1.2664     2.1759    -3.6768 C.2     
   8 C8             2.2516     3.1375    -3.9559 C.2     
   9 C9             3.0622     3.5920    -2.8841 C.2     
  10 N10            0.4585     1.6987    -4.6796 N.pl3   
  11 O11            3.9321     4.4253    -3.0703 O.2     
  12 C12           -0.2179    -1.6363    -0.3298 C.ar    
  13 C13           -1.5187    -1.2208    -0.1146 C.ar    
  14 C14           -1.7881     0.1149     0.1180 C.ar    
  15 C15           -0.7577     1.0363     0.1279 C.ar    
  16 C16            1.0076     1.4168    -6.0129 C.3     
  17 C17            0.6514    -0.0224    -6.3986 C.3     
  18 C18           -0.8627    -0.2159    -6.2886 C.3     
  19 C19           -1.3052     0.0202    -4.8426 C.3     
  20 C20           -0.9700     1.4545    -4.4377 C.3     
  21 C21            2.4357     3.6402    -5.2840 C.1     
  22 N22            2.5817     4.0390    -6.3376 N.1     
  23 H23            1.8296    -1.0405    -0.4809 H       
  24 H24            1.4145     2.4406     0.6127 H       
  25 H25            2.5820     1.1386     0.2809 H       
  26 H26            3.3887     3.3821    -0.9064 H       
  27 H27           -0.0074    -2.6798    -0.5115 H       
  28 H28           -2.3245    -1.9398    -0.1286 H       
  29 H29           -2.8045     0.4395     0.2857 H       
  30 H30           -0.9682     2.0799     0.3096 H       
  31 H31            0.5771     2.1067    -6.7387 H       
  32 H32            2.0912     1.5324    -5.9937 H       
  33 H33            0.9691    -0.2136    -7.4236 H       
  34 H34            1.1566    -0.7151    -5.7255 H       
  35 H35           -1.3681     0.4938    -6.9435 H       
  36 H36           -1.1215    -1.2321    -6.5861 H       
  37 H37           -2.3801    -0.1407    -4.7602 H       
  38 H38           -0.7815    -0.6729    -4.1842 H       
  39 H39           -1.1924     1.5971    -3.3802 H       
  40 H40           -1.5602     2.1500    -5.0344 H       
@<TRIPOS>BOND
   1    1    2 ar
   2    1    3 1
   3    1   15 ar
   4    2   12 ar
   5    2   23 1
   6    3    4 1
   7    3   24 1
   8    3   25 1
   9    4    5 1
  10    4    6 2
  11    5    9 am
  12    5   26 1
  13    6    7 1
  14    7    8 2
  15    7   10 1
  16    8    9 1
  17    8   21 1
  18    9   11 2
  19   10   16 1
  20   10   20 1
  21   12   13 ar
  22   12   27 1
  23   13   14 ar
  24   13   28 1
  25   14   15 ar
  26   14   29 1
  27   15   30 1
  28   16   17 1
  29   16   31 1
  30   16   32 1
  31   17   18 1
  32   17   33 1
  33   17   34 1
  34   18   19 1
  35   18   35 1
  36   18   36 1
  37   19   20 1
  38   19   37 1
  39   19   38 1
  40   20   39 1
  41   20   40 1
  42   21   22 3

#	End of record

