#	Name: ASD04910451
#	Creating user name:	WinNT
#	Creation time:	15. 06. 2019 20:55

#	Modifying user name:	WinNT
#	Modification time:	15. 06. 2019 20:55

#	Program:	/corina/corina34_cracker 3.40 0067  02.08.2006

@<TRIPOS>MOLECULE
ASD04910451
  64   67    0    0    0
SMALL
NO_CHARGES


@<TRIPOS>ATOM
   1 C1            -0.1509     1.4684     0.1306 C.2     
   2 C2            -0.1095    -0.0379     0.1078 C.3     
   3 C3             1.3461    -0.5075     0.0678 C.3     
   4 O4             0.8782     2.1014     0.1163 O.2     
   5 O5            -1.3312     2.1069     0.1612 O.3     
   6 C6             2.5714    -2.6128     0.0092 C.2     
   7 C7             2.6121    -4.0905    -0.0132 C.ar    
   8 C8             3.8376    -4.7575    -0.0508 C.ar    
   9 C9             3.8685    -6.1366    -0.0710 C.ar    
  10 C10            2.6882    -6.8584    -0.0546 C.ar    
  11 C11            1.4701    -6.2034    -0.0173 C.ar    
  12 C12            1.4253    -4.8248     0.0091 C.ar    
  13 O13            3.6067    -1.9760    -0.0051 O.2     
  14 N14            1.3864    -1.9717     0.0456 N.am    
  15 C15            2.7297    -8.3646    -0.0779 C.3     
  16 C16            2.5261    -8.9024     1.3399 C.3     
  17 C17            2.6919   -10.4234     1.3372 C.3     
  18 C18            2.4883   -10.9612     2.7550 C.3     
  19 O19            1.6915    -8.8566    -0.9276 O.3     
  20 C20            1.9543    -9.9904    -1.6304 C.ar    
  21 C21            3.2180   -10.5727    -1.5815 C.ar    
  22 C22            3.4406   -11.7263    -2.3122 C.ar    
  23 C23            2.4029   -12.2616    -3.0653 C.ar    
  24 N24            1.2146   -11.6811    -3.0881 N.ar    
  25 C25            0.9659   -10.5840    -2.3998 C.ar    
  26 C26            1.7032   -14.0545    -4.5811 C.2     
  27 N27            2.6175   -13.4275    -3.8083 N.pl3   
  28 N28            3.8169   -14.1463    -3.8804 N.2     
  29 C29            3.6391   -15.1735    -4.6685 C.2     
  30 C30            2.4194   -17.2019    -6.5394 C.ar    
  31 C31            1.6792   -16.1278    -6.0507 C.ar    
  32 C32            2.3083   -15.1464    -5.1313 C.2     
  33 C33            0.3466   -15.9776    -6.4279 C.ar    
  34 C34           -0.2333   -16.8926    -7.2833 C.ar    
  35 C35            0.5062   -17.9576    -7.7653 C.ar    
  36 C36            1.8298   -18.1112    -7.3942 C.ar    
  37 H37           -0.5927    -0.4282     1.0034 H       
  38 H38           -0.6333    -0.4024    -0.7759 H       
  39 H39            1.8294    -0.1171    -0.8279 H       
  40 H40            1.8699    -0.1429     0.9514 H       
  41 H41           -1.3072     3.0735     0.1749 H       
  42 H42            4.7596    -4.1952    -0.0644 H       
  43 H43            4.8161    -6.6539    -0.1002 H       
  44 H44            0.5524    -6.7727    -0.0046 H       
  45 H45            0.4739    -4.3147     0.0427 H       
  46 H46            0.5603    -2.4799     0.0570 H       
  47 H47            3.6967    -8.6957    -0.4567 H       
  48 H48            3.2646    -8.4576     2.0068 H       
  49 H49            1.5242    -8.6468     1.6851 H       
  50 H50            1.9534   -10.8682     0.6703 H       
  51 H51            3.6938   -10.6790     0.9920 H       
  52 H52            2.6065   -12.0447     2.7531 H       
  53 H53            3.2269   -10.5163     3.4219 H       
  54 H54            1.4865   -10.7056     3.1002 H       
  55 H55            4.0061   -10.1340    -0.9874 H       
  56 H56            4.4089   -12.2044    -2.2977 H       
  57 H57           -0.0182   -10.1407    -2.4393 H       
  58 H58            0.6783   -13.7492    -4.7321 H       
  59 H59            4.3830   -15.9145    -4.9213 H       
  60 H60            3.4541   -17.3205    -6.2536 H       
  61 H61           -0.2319   -15.1468    -6.0516 H       
  62 H62           -1.2663   -16.7771    -7.5764 H       
  63 H63            0.0485   -18.6715    -8.4340 H       
  64 H64            2.4029   -18.9441    -7.7740 H       
@<TRIPOS>BOND
   1    1    2 1
   2    1    4 2
   3    1    5 1
   4    2    3 1
   5    2   37 1
   6    2   38 1
   7    3   14 1
   8    3   39 1
   9    3   40 1
  10    5   41 1
  11    6    7 1
  12    6   13 2
  13    6   14 am
  14    7    8 ar
  15    7   12 ar
  16    8    9 ar
  17    8   42 1
  18    9   10 ar
  19    9   43 1
  20   10   11 ar
  21   10   15 1
  22   11   12 ar
  23   11   44 1
  24   12   45 1
  25   14   46 1
  26   15   16 1
  27   15   19 1
  28   15   47 1
  29   16   17 1
  30   16   48 1
  31   16   49 1
  32   17   18 1
  33   17   50 1
  34   17   51 1
  35   18   52 1
  36   18   53 1
  37   18   54 1
  38   19   20 1
  39   20   21 ar
  40   20   25 ar
  41   21   22 ar
  42   21   55 1
  43   22   23 ar
  44   22   56 1
  45   23   24 ar
  46   23   27 1
  47   24   25 ar
  48   25   57 1
  49   26   27 1
  50   26   32 2
  51   26   58 1
  52   27   28 1
  53   28   29 2
  54   29   32 1
  55   29   59 1
  56   30   31 ar
  57   30   36 ar
  58   30   60 1
  59   31   32 1
  60   31   33 ar
  61   33   34 ar
  62   33   61 1
  63   34   35 ar
  64   34   62 1
  65   35   36 ar
  66   35   63 1
  67   36   64 1

#	End of record

