#	Name: ASD01914430
#	Creating user name:	WinNT
#	Creation time:	15. 06. 2019 20:03

#	Modifying user name:	WinNT
#	Modification time:	15. 06. 2019 20:03

#	Program:	/corina/corina34_cracker 3.40 0067  02.08.2006

@<TRIPOS>MOLECULE
ASD01914430
  58   62    0    0    0
SMALL
NO_CHARGES


@<TRIPOS>ATOM
   1 C1            -0.0167     1.3770     0.0096 C.ar    
   2 C2             0.0021    -0.0041     0.0020 C.ar    
   3 C3             1.2144    -0.6804    -0.0132 C.ar    
   4 C4             2.4046     0.0342    -0.0207 C.ar    
   5 C5             2.3796     1.4151    -0.0130 C.ar    
   6 C6             1.1705     2.0860     0.0021 C.ar    
   7 N7             1.2366    -2.0822    -0.0204 N.pl3   
   8 C8             0.5487    -2.9096     0.8265 C.2     
   9 C9             0.8588    -4.1822     0.4665 C.2     
  10 N10            1.7144    -4.1212    -0.5740 N.2     
  11 C11            1.9403    -2.8726    -0.8732 C.2     
  12 C12            0.3473    -5.4198     1.1053 C.ar    
  13 C13           -0.6155    -5.3413     2.1095 C.ar    
  14 C14           -1.0888    -6.4951     2.7006 C.ar    
  15 C15           -0.6082    -7.7299     2.2968 C.ar    
  16 C16            0.3491    -7.8127     1.2986 C.ar    
  17 C17            0.8241    -6.6648     0.6985 C.ar    
  18 C18            2.8419    -2.3851    -1.9780 C.3     
  19 O19            0.8626    -2.5080    -3.2575 O.2     
  20 C20            2.0457    -2.2411    -3.2494 C.2     
  21 N21            2.6483    -1.8157    -4.3773 N.am    
  22 C22            1.8235    -1.6982    -5.5706 C.3     
  23 C23            1.6418    -0.2118    -5.9218 C.3     
  24 C24            2.9473     0.2711    -6.5333 C.2     
  25 C25            4.1055     0.3819    -5.8842 C.2     
  26 C26            4.2896     0.0021    -4.4155 C.3     
  27 C27            4.0671    -1.5069    -4.2991 C.3     
  28 S28            3.1770     0.7731    -8.2031 S.3     
  29 C29            4.8207     1.1127    -7.8758 C.2     
  30 N30            5.0894     0.8500    -6.6442 N.2     
  31 C31            5.8102     1.6416    -8.8819 C.3     
  32 F32           -1.0741    -8.8568     2.8784 F       
  33 C33            0.8685    -9.1590     0.8640 C.3     
  34 H34           -0.9595     1.9037     0.0169 H       
  35 H35           -0.9255    -0.5573     0.0082 H       
  36 H36            3.3492    -0.4893    -0.0321 H       
  37 H37            3.3052     1.9715    -0.0185 H       
  38 H38            1.1534     3.1658     0.0077 H       
  39 H39           -0.1121    -2.6087     1.6260 H       
  40 H40           -0.9905    -4.3789     2.4251 H       
  41 H41           -1.8348    -6.4351     3.4792 H       
  42 H42            1.5701    -6.7302    -0.0797 H       
  43 H43            3.2644    -1.4188    -1.7025 H       
  44 H44            3.6473    -3.1030    -2.1330 H       
  45 H45            2.3097    -2.2110    -6.4005 H       
  46 H46            0.8490    -2.1496    -5.3848 H       
  47 H47            0.8306    -0.0971    -6.6408 H       
  48 H48            1.4218     0.3583    -5.0192 H       
  49 H49            5.2992     0.2545    -4.0915 H       
  50 H50            3.5598     0.5306    -3.8021 H       
  51 H51            4.4610    -1.8579    -3.3454 H       
  52 H52            4.5882    -2.0129    -5.1118 H       
  53 H53            5.7983     2.7314    -8.8649 H       
  54 H54            6.8092     1.2853    -8.6308 H       
  55 H55            5.5388     1.2908    -9.8775 H       
  56 H56            0.2507    -9.5417     0.0516 H       
  57 H57            1.8981    -9.0578     0.5209 H       
  58 H58            0.8321    -9.8512     1.7052 H       
@<TRIPOS>BOND
   1    1    2 ar
   2    1    6 ar
   3    1   34 1
   4    2    3 ar
   5    2   35 1
   6    3    4 ar
   7    3    7 1
   8    4    5 ar
   9    4   36 1
  10    5    6 ar
  11    5   37 1
  12    6   38 1
  13    7    8 1
  14    7   11 1
  15    8    9 2
  16    8   39 1
  17    9   10 1
  18    9   12 1
  19   10   11 2
  20   11   18 1
  21   12   13 ar
  22   12   17 ar
  23   13   14 ar
  24   13   40 1
  25   14   15 ar
  26   14   41 1
  27   15   16 ar
  28   15   32 1
  29   16   17 ar
  30   16   33 1
  31   17   42 1
  32   18   20 1
  33   18   43 1
  34   18   44 1
  35   19   20 2
  36   20   21 am
  37   21   22 1
  38   21   27 1
  39   22   23 1
  40   22   45 1
  41   22   46 1
  42   23   24 1
  43   23   47 1
  44   23   48 1
  45   24   25 2
  46   24   28 1
  47   25   26 1
  48   25   30 1
  49   26   27 1
  50   26   49 1
  51   26   50 1
  52   27   51 1
  53   27   52 1
  54   28   29 1
  55   29   30 2
  56   29   31 1
  57   31   53 1
  58   31   54 1
  59   31   55 1
  60   33   56 1
  61   33   57 1
  62   33   58 1

#	End of record

