#	Name: ASD02039139
#	Creating user name:	WinNT
#	Creation time:	15. 06. 2019 20:17

#	Modifying user name:	WinNT
#	Modification time:	15. 06. 2019 20:17

#	Program:	/corina/corina34_cracker 3.40 0067  02.08.2006

@<TRIPOS>MOLECULE
ASD02039139
  42   45    0    0    0
SMALL
NO_CHARGES


@<TRIPOS>ATOM
   1 N1             0.0234     1.2846    -0.3607 N.2     
   2 N2             0.0398    -0.0019    -0.3619 N.2     
   3 C3             1.2244     1.7332    -0.0875 C.2     
   4 O4             2.0204     0.6620     0.0884 O.3     
   5 C5             1.2410    -0.4221    -0.0919 C.2     
   6 N6             1.6034     3.0605     0.0028 N.pl3   
   7 C7             0.6393     4.0715    -0.0882 C.ar    
   8 C8             1.6809    -1.8604     0.0021 C.3     
   9 C9             2.1408    -2.3346    -1.3523 C.ar    
  10 C10           -0.6626     3.8294     0.3297 C.ar    
  11 C11            0.9859     5.3188    -0.5911 C.ar    
  12 C12            0.0348     6.3162    -0.6799 C.ar    
  13 C13           -1.2667     6.0730    -0.2670 C.ar    
  14 C14            3.4520    -2.1934    -1.7098 C.ar    
  15 C15            1.2299    -2.9160    -2.2234 C.ar    
  16 C16            1.6286    -3.3569    -3.4671 C.ar    
  17 C17            2.9569    -3.2186    -3.8552 C.ar    
  18 C18            3.8791    -2.6334    -2.9667 C.ar    
  19 C19           -1.6135     4.8283     0.2398 C.ar    
  20 Cl20          -3.2429     4.5245     0.7558 Cl      
  21 N21            3.3831    -3.6501    -5.0932 N.am    
  22 C22            4.6675    -3.5162    -5.4678 C.2     
  23 C23            5.6301    -2.9317    -4.6171 C.2     
  24 C24            5.2752    -2.4922    -3.3844 C.2     
  25 O25            5.0091    -3.9098    -6.5696 O.2     
  26 O26           -2.2025     7.0562    -0.3545 O.3     
  27 C27           -1.7748     8.3139    -0.8810 C.3     
  28 F28           -0.7565     8.8348    -0.0754 F       
  29 F29           -1.2944     8.1354    -2.1827 F       
  30 H30            2.5372     3.2907     0.1291 H       
  31 H31            2.5019    -1.9434     0.7143 H       
  32 H32            0.8453    -2.4747     0.3377 H       
  33 H33           -0.9321     2.8609     0.7243 H       
  34 H34            1.9993     5.5089    -0.9125 H       
  35 H35            0.3048     7.2862    -1.0707 H       
  36 H36            4.1555    -1.7437    -1.0248 H       
  37 H37            0.1981    -3.0244    -1.9234 H       
  38 H38            0.9122    -3.8082    -4.1375 H       
  39 H39            2.7474    -4.0566    -5.7027 H       
  40 H40            6.6542    -2.8387    -4.9473 H       
  41 H41            6.0054    -2.0437    -2.7270 H       
  42 H42           -2.6163     9.0065    -0.8961 H       
@<TRIPOS>BOND
   1    1    2 1
   2    1    3 2
   3    2    5 2
   4    3    4 1
   5    3    6 1
   6    4    5 1
   7    5    8 1
   8    6    7 1
   9    6   30 1
  10    7   10 ar
  11    7   11 ar
  12    8    9 1
  13    8   31 1
  14    8   32 1
  15    9   14 ar
  16    9   15 ar
  17   10   19 ar
  18   10   33 1
  19   11   12 ar
  20   11   34 1
  21   12   13 ar
  22   12   35 1
  23   13   19 ar
  24   13   26 1
  25   14   18 ar
  26   14   36 1
  27   15   16 ar
  28   15   37 1
  29   16   17 ar
  30   16   38 1
  31   17   18 ar
  32   17   21 1
  33   18   24 1
  34   19   20 1
  35   21   22 am
  36   21   39 1
  37   22   23 1
  38   22   25 2
  39   23   24 2
  40   23   40 1
  41   24   41 1
  42   26   27 1
  43   27   28 1
  44   27   29 1
  45   27   42 1

#	End of record

