#	Name: ASD09740098
#	Creating user name:	WinNT
#	Creation time:	15. 06. 2019 21:22

#	Modifying user name:	WinNT
#	Modification time:	15. 06. 2019 21:22

#	Program:	/corina/corina34_cracker 3.40 0067  02.08.2006

@<TRIPOS>MOLECULE
ASD09740098
  65   67    0    0    0
SMALL
NO_CHARGES


@<TRIPOS>ATOM
   1 O1             0.6737     1.4059     0.9488 O.3     
   2 N2             0.6607     0.1967     0.8575 N.2     
   3 C3             1.9317     1.8370     1.1320 C.2     
   4 N4             2.7050     0.7668     1.1454 N.2     
   5 C5             1.8738    -0.2811     0.9678 C.2     
   6 C6             2.2636    -1.7123     0.9093 C.ar    
   7 C7             2.3673     3.2395     1.2880 C.ar    
   8 C8             1.2978    -2.7038     0.7196 C.ar    
   9 C9             3.5990    -2.0879     1.0370 C.ar    
  10 N10            3.9464    -3.3574     0.9845 N.ar    
  11 C11            3.0568    -4.3160     0.8114 C.ar    
  12 C12            1.7125    -4.0240     0.6718 C.ar    
  13 C13            3.7191     3.5358     1.4719 C.ar    
  14 C14            4.1243     4.8458     1.6175 C.ar    
  15 C15            3.1913     5.8719     1.5811 C.ar    
  16 C16            1.8400     5.5830     1.3977 C.ar    
  17 C17            1.4281     4.2730     1.2460 C.ar    
  18 O18            3.5954     7.1611     1.7249 O.3     
  19 O19            0.9277     6.5910     1.3630 O.3     
  20 C20            0.7091    -5.1309     0.4747 C.3     
  21 C21           -0.4396     6.2223     1.1718 C.3     
  22 C22           -1.3103     7.4803     1.1605 C.3     
  23 C23            4.9945     7.3856     1.9097 C.3     
  24 C24            5.2558     8.8863     2.0520 C.3     
  25 N25            0.2197    -5.5868     1.7826 N.3     
  26 C26           -0.7627    -6.6682     1.6294 C.3     
  27 C27           -1.2482    -7.1155     3.0097 C.3     
  28 N28           -2.2306    -8.1969     2.8564 N.3     
  29 C29           -1.3873    -9.7221     4.5769 C.3     
  30 C30           -2.5424    -8.8125     4.1533 C.3     
  31 C31           -4.2718    -8.9024     1.7019 C.3     
  32 C32           -3.4502    -7.7107     2.1976 C.3     
  33 H33            0.2542    -2.4471     0.6132 H       
  34 H34            4.3563    -1.3314     1.1800 H       
  35 H35            3.3841    -5.3445     0.7741 H       
  36 H36            4.4475     2.7389     1.5006 H       
  37 H37            5.1703     5.0736     1.7604 H       
  38 H38            0.3816     4.0478     1.1035 H       
  39 H39           -0.1279    -4.7614    -0.1177 H       
  40 H40            1.1834    -5.9628    -0.0459 H       
  41 H41           -0.5453     5.6987     0.2216 H       
  42 H42           -0.7565     5.5683     1.9842 H       
  43 H43           -2.3533     7.1990     1.0147 H       
  44 H44           -1.2046     8.0038     2.1107 H       
  45 H45           -0.9934     8.1343     0.3481 H       
  46 H46            5.3291     6.8715     2.8108 H       
  47 H47            5.5410     7.0017     1.0483 H       
  48 H48            6.3230     9.0576     2.1930 H       
  49 H49            4.9213     9.4004     1.1510 H       
  50 H50            4.7093     9.2702     2.9135 H       
  51 H51            0.9845    -5.8743     2.3747 H       
  52 H52           -1.6099    -6.3093     1.0450 H       
  53 H53           -0.2986    -7.5108     1.1168 H       
  54 H54           -0.4010    -7.4744     3.5941 H       
  55 H55           -1.7123    -6.2730     3.5223 H       
  56 H56           -1.5793   -10.1113     5.5768 H       
  57 H57           -1.3014   -10.5512     3.8746 H       
  58 H58           -0.4585    -9.1517     4.5812 H       
  59 H59           -2.6837    -8.0323     4.9012 H       
  60 H60           -3.4554    -9.4015     4.0657 H       
  61 H61           -5.1282    -8.5415     1.1324 H       
  62 H62           -3.6508    -9.5319     1.0646 H       
  63 H63           -4.6217    -9.4828     2.5557 H       
  64 H64           -4.0410    -7.1324     2.9080 H       
  65 H65           -3.1791    -7.0792     1.3516 H       
@<TRIPOS>BOND
   1    1    2 1
   2    1    3 1
   3    2    5 2
   4    3    4 2
   5    3    7 1
   6    4    5 1
   7    5    6 1
   8    6    8 ar
   9    6    9 ar
  10    7   13 ar
  11    7   17 ar
  12    8   12 ar
  13    8   33 1
  14    9   10 ar
  15    9   34 1
  16   10   11 ar
  17   11   12 ar
  18   11   35 1
  19   12   20 1
  20   13   14 ar
  21   13   36 1
  22   14   15 ar
  23   14   37 1
  24   15   16 ar
  25   15   18 1
  26   16   17 ar
  27   16   19 1
  28   17   38 1
  29   18   23 1
  30   19   21 1
  31   20   25 1
  32   20   39 1
  33   20   40 1
  34   21   22 1
  35   21   41 1
  36   21   42 1
  37   22   43 1
  38   22   44 1
  39   22   45 1
  40   23   24 1
  41   23   46 1
  42   23   47 1
  43   24   48 1
  44   24   49 1
  45   24   50 1
  46   25   26 1
  47   25   51 1
  48   26   27 1
  49   26   52 1
  50   26   53 1
  51   27   28 1
  52   27   54 1
  53   27   55 1
  54   28   30 1
  55   28   32 1
  56   29   30 1
  57   29   56 1
  58   29   57 1
  59   29   58 1
  60   30   59 1
  61   30   60 1
  62   31   32 1
  63   31   61 1
  64   31   62 1
  65   31   63 1
  66   32   64 1
  67   32   65 1

#	End of record

