#	Name: ASD01208425
#	Creating user name:	WinNT
#	Creation time:	15. 06. 2019 19:09

#	Modifying user name:	WinNT
#	Modification time:	15. 06. 2019 19:09

#	Program:	/corina/corina34_cracker 3.40 0067  02.08.2006

@<TRIPOS>MOLECULE
ASD01208425
  34   35    0    0    0
SMALL
NO_CHARGES


@<TRIPOS>ATOM
   1 N1            -0.0165     1.3653     0.0095 N.am    
   2 C2             0.0021    -0.0041     0.0020 C.2     
   3 C3             1.2885    -0.4145    -0.0125 C.2     
   4 C4             2.1065     0.7279    -0.0141 C.2     
   5 C5             1.2876     1.8182    -0.0005 C.2     
   6 C6            -1.1200     2.1390     0.0192 C.2     
   7 O7            -1.6117     2.4822     1.0751 O.2     
   8 O8            -1.6769     2.5312    -1.1413 O.3     
   9 S9             3.3875     3.7844    -0.0104 S.3     
  10 C10            1.7170     3.2250     0.0026 C.2     
  11 N11            0.9217     4.2597     0.0148 N.2     
  12 C12            1.4872     5.4453     0.0151 C.2     
  13 C13            2.8238     5.4542     0.0027 C.2     
  14 C14            3.6985     6.6814     0.0003 C.3     
  15 Br15          -1.5172    -1.1300     0.0110 Br      
  16 C16           -2.8637     3.3632    -1.0550 C.3     
  17 C17           -2.5288     4.6530    -0.3032 C.3     
  18 C18           -3.3498     3.7061    -2.4646 C.3     
  19 C19           -3.9632     2.6073    -0.3062 C.3     
  20 H20            1.6284    -1.4396    -0.0209 H       
  21 H21            3.1864     0.7402    -0.0239 H       
  22 H22            0.9079     6.3568     0.0247 H       
  23 H23            4.7461     6.3808    -0.0113 H       
  24 H24            3.4824     7.2799    -0.8847 H       
  25 H25            3.4996     7.2711     0.8951 H       
  26 H26           -1.7455     5.1916    -0.8366 H       
  27 H27           -3.4197     5.2776    -0.2384 H       
  28 H28           -2.1825     4.4087     0.7011 H       
  29 H29           -3.5885     2.7873    -3.0002 H       
  30 H30           -4.2408     4.3307    -2.3998 H       
  31 H31           -2.5666     4.2447    -2.9981 H       
  32 H32           -3.6168     2.3630     0.6981 H       
  33 H33           -4.8541     3.2319    -0.2414 H       
  34 H34           -4.2018     1.6884    -0.8418 H       
@<TRIPOS>BOND
   1    1    2 1
   2    1    5 1
   3    1    6 am
   4    2    3 2
   5    2   15 1
   6    3    4 1
   7    3   20 1
   8    4    5 2
   9    4   21 1
  10    5   10 1
  11    6    7 2
  12    6    8 1
  13    8   16 1
  14    9   10 1
  15    9   13 1
  16   10   11 2
  17   11   12 1
  18   12   13 2
  19   12   22 1
  20   13   14 1
  21   14   23 1
  22   14   24 1
  23   14   25 1
  24   16   17 1
  25   16   19 1
  26   16   18 1
  27   17   26 1
  28   17   27 1
  29   17   28 1
  30   18   29 1
  31   18   30 1
  32   18   31 1
  33   19   32 1
  34   19   33 1
  35   19   34 1

#	End of record

