#	Name: ASD04880165
#	Creating user name:	WinNT
#	Creation time:	15. 06. 2019 20:52

#	Modifying user name:	WinNT
#	Modification time:	15. 06. 2019 20:52

#	Program:	/corina/corina34_cracker 3.40 0067  02.08.2006

@<TRIPOS>MOLECULE
ASD04880165
  45   47    0    0    0
SMALL
NO_CHARGES


@<TRIPOS>ATOM
   1 C1            -0.0144     1.2121     0.0087 C.2     
   2 O2             0.0570    -0.0019    -0.0143 O.2     
   3 C3             1.2172     2.0243    -0.0195 C.ar    
   4 C4             2.4669     1.4054     0.0724 C.ar    
   5 C5             3.6138     2.1670     0.0457 C.ar    
   6 C6             3.5298     3.5495    -0.0720 C.ar    
   7 C7             2.2888     4.1689    -0.1632 C.ar    
   8 C8             1.1373     3.4140    -0.1440 C.ar    
   9 N9            -1.2187     1.8155     0.0544 N.am    
  10 N10           -1.4342     3.1847     0.1967 N.2     
  11 C11           -2.6775     3.5230     0.2129 C.2     
  12 C12           -3.5386     2.2886     0.0678 C.3     
  13 C13           -2.5205     1.1366    -0.0442 C.3     
  14 C14           -3.1825     4.9010     0.3515 C.ar    
  15 C15           -2.2866     5.9657     0.4786 C.ar    
  16 C16           -2.7655     7.2559     0.6083 C.ar    
  17 C17           -4.1385     7.4923     0.6121 C.ar    
  18 C18           -5.0283     6.4355     0.4859 C.ar    
  19 C19           -4.5580     5.1463     0.3503 C.ar    
  20 O20           -4.6075     8.7618     0.7402 O.3     
  21 C21           -6.0262     8.9328     0.7364 C.3     
  22 O22           -1.8964     8.2945     0.7326 O.3     
  23 C23           -0.5027     7.9791     0.7212 C.3     
  24 O24            4.6625     4.2965    -0.0974 O.3     
  25 C25            4.5039     5.7114    -0.2203 C.3     
  26 H26            2.5330     0.3314     0.1646 H       
  27 H27            4.5799     1.6896     0.1168 H       
  28 H28            2.2278     5.2433    -0.2539 H       
  29 H29            0.1736     3.8956    -0.2198 H       
  30 H30           -4.1724     2.1593     0.9451 H       
  31 H31           -4.1439     2.3489    -0.8367 H       
  32 H32           -2.6168     0.6293    -1.0041 H       
  33 H33           -2.6490     0.4322     0.7777 H       
  34 H34           -1.2225     5.7811     0.4758 H       
  35 H35           -6.0918     6.6233     0.4898 H       
  36 H36           -5.2529     4.3259     0.2478 H       
  37 H37           -6.2649     9.9907     0.8455 H       
  38 H38           -6.4341     8.5635    -0.2045 H       
  39 H39           -6.4617     8.3747     1.5652 H       
  40 H40           -0.2475     7.4949    -0.2214 H       
  41 H41            0.0780     8.8953     0.8279 H       
  42 H42           -0.2756     7.3065     1.5483 H       
  43 H43            5.4843     6.1876    -0.2281 H       
  44 H44            3.9819     5.9391    -1.1497 H       
  45 H45            3.9245     6.0866     0.6233 H       
@<TRIPOS>BOND
   1    1    2 2
   2    1    3 1
   3    1    9 am
   4    3    4 ar
   5    3    8 ar
   6    4    5 ar
   7    4   26 1
   8    5    6 ar
   9    5   27 1
  10    6    7 ar
  11    6   24 1
  12    7    8 ar
  13    7   28 1
  14    8   29 1
  15    9   10 1
  16    9   13 1
  17   10   11 2
  18   11   12 1
  19   11   14 1
  20   12   13 1
  21   12   30 1
  22   12   31 1
  23   13   32 1
  24   13   33 1
  25   14   15 ar
  26   14   19 ar
  27   15   16 ar
  28   15   34 1
  29   16   17 ar
  30   16   22 1
  31   17   18 ar
  32   17   20 1
  33   18   19 ar
  34   18   35 1
  35   19   36 1
  36   20   21 1
  37   21   37 1
  38   21   38 1
  39   21   39 1
  40   22   23 1
  41   23   40 1
  42   23   41 1
  43   23   42 1
  44   24   25 1
  45   25   43 1
  46   25   44 1
  47   25   45 1

#	End of record

