#	Name: ASD08178023
#	Creating user name:	WinNT
#	Creation time:	15. 06. 2019 21:18

#	Modifying user name:	WinNT
#	Modification time:	15. 06. 2019 21:18

#	Program:	/corina/corina34_cracker 3.40 0067  02.08.2006

@<TRIPOS>MOLECULE
ASD08178023
  65   68    0    0    0
SMALL
NO_CHARGES


@<TRIPOS>ATOM
   1 N1            -0.0155     1.2947     0.0092 N.2     
   2 C2             0.0021    -0.0041     0.0020 C.2     
   3 N3            -1.1168    -0.8300     0.0076 N.am    
   4 N4             1.0945     1.8960     0.0018 N.2     
   5 C5             2.1557     1.1534    -0.0123 C.2     
   6 S6             1.6320    -0.5310    -0.0164 S.3     
   7 C7             3.5816     1.6410    -0.0241 C.3     
   8 C8             4.0787     1.7984     1.4143 C.3     
   9 S9             5.7950     2.3852     1.4002 S.3     
  10 C10            6.1989     2.5079     3.1644 C.3     
  11 C11            7.6391     2.9988     3.3250 C.3     
  12 C12            7.9746     3.1008     4.7906 C.2     
  13 N13            8.4834     2.1629     5.5249 N.2     
  14 N14            8.6933     2.4459     6.7372 N.2     
  15 C15            8.3839     3.6414     7.1397 C.2     
  16 S16            7.7520     4.5212     5.8126 S.3     
  17 N17            8.5433     4.1281     8.4328 N.am    
  18 C18            9.0592     3.3348     9.3925 C.2     
  19 O19            9.3844     2.1966     9.1285 O.2     
  20 C20            9.2319     3.8621    10.7936 C.3     
  21 C21            9.8234     2.7852    11.6663 C.ar    
  22 C22           10.1682     5.0720    10.7714 C.3     
  23 C23            9.1311     2.3364    12.7753 C.ar    
  24 C24           11.0559     2.2423    11.3545 C.ar    
  25 C25           11.5985     1.2544    12.1549 C.ar    
  26 C26           10.9088     0.8099    13.2674 C.ar    
  27 C27            9.6737     1.3486    13.5758 C.ar    
  28 C28           -2.3521    -0.2911     0.0220 C.2     
  29 O29           -2.4879     0.9140     0.0301 O.2     
  30 C30           -3.5646    -1.1861     0.0280 C.3     
  31 C31           -3.5351    -2.0764     1.2719 C.3     
  32 C32           -4.8124    -0.3413     0.0443 C.ar    
  33 C33           -5.7298    -0.4436    -0.9847 C.ar    
  34 C34           -6.8744     0.3313    -0.9698 C.ar    
  35 C35           -7.1019     1.2082     0.0744 C.ar    
  36 C36           -6.1849     1.3099     1.1038 C.ar    
  37 C37           -5.0424     0.5318     1.0911 C.ar    
  38 H38           -1.0082    -1.7939     0.0010 H       
  39 H39            4.2081     0.9191    -0.5480 H       
  40 H40            3.6324     2.6033    -0.5334 H       
  41 H41            3.4522     2.5202     1.9383 H       
  42 H42            4.0279     0.8360     1.9237 H       
  43 H43            5.5194     3.2120     3.6446 H       
  44 H44            6.0951     1.5278     3.6299 H       
  45 H45            8.3186     2.2947     2.8448 H       
  46 H46            7.7429     3.9790     2.8595 H       
  47 H47            8.2832     5.0384     8.6439 H       
  48 H48            8.2621     4.1604    11.1917 H       
  49 H49           11.1380     4.7737    10.3733 H       
  50 H50            9.7403     5.8509    10.1402 H       
  51 H51           10.2931     5.4534    11.7848 H       
  52 H52            8.1664     2.7577    13.0166 H       
  53 H53           11.5947     2.5896    10.4853 H       
  54 H54           12.5610     0.8297    11.9109 H       
  55 H55           11.3326     0.0379    13.8926 H       
  56 H56            9.1349     1.0013    14.4450 H       
  57 H57           -3.5599    -1.8102    -0.8656 H       
  58 H58           -3.5398    -1.4523     2.1656 H       
  59 H59           -4.4121    -2.7237     1.2763 H       
  60 H60           -2.6326    -2.6874     1.2602 H       
  61 H61           -5.5521    -1.1287    -1.8005 H       
  62 H62           -7.5908     0.2519    -1.7740 H       
  63 H63           -7.9958     1.8142     0.0857 H       
  64 H64           -6.3624     1.9952     1.9194 H       
  65 H65           -4.3260     0.6111     1.8954 H       
@<TRIPOS>BOND
   1    1    2 2
   2    1    4 1
   3    2    3 1
   4    2    6 1
   5    3   28 am
   6    3   38 1
   7    4    5 2
   8    5    6 1
   9    5    7 1
  10    7    8 1
  11    7   39 1
  12    7   40 1
  13    8    9 1
  14    8   41 1
  15    8   42 1
  16    9   10 1
  17   10   11 1
  18   10   43 1
  19   10   44 1
  20   11   12 1
  21   11   45 1
  22   11   46 1
  23   12   13 2
  24   12   16 1
  25   13   14 1
  26   14   15 2
  27   15   16 1
  28   15   17 1
  29   17   18 am
  30   17   47 1
  31   18   19 2
  32   18   20 1
  33   20   21 1
  34   20   22 1
  35   20   48 1
  36   21   23 ar
  37   21   24 ar
  38   22   49 1
  39   22   50 1
  40   22   51 1
  41   23   27 ar
  42   23   52 1
  43   24   25 ar
  44   24   53 1
  45   25   26 ar
  46   25   54 1
  47   26   27 ar
  48   26   55 1
  49   27   56 1
  50   28   29 2
  51   28   30 1
  52   30   31 1
  53   30   32 1
  54   30   57 1
  55   31   58 1
  56   31   59 1
  57   31   60 1
  58   32   33 ar
  59   32   37 ar
  60   33   34 ar
  61   33   61 1
  62   34   35 ar
  63   34   62 1
  64   35   36 ar
  65   35   63 1
  66   36   37 ar
  67   36   64 1
  68   37   65 1

#	End of record

