#	Name: ASD03090623
#	Creating user name:	WinNT
#	Creation time:	15. 06. 2019 20:29

#	Modifying user name:	WinNT
#	Modification time:	15. 06. 2019 20:29

#	Program:	/corina/corina34_cracker 3.40 0067  02.08.2006

@<TRIPOS>MOLECULE
ASD03090623
  46   47    0    0    0
SMALL
NO_CHARGES


@<TRIPOS>ATOM
   1 N1            -0.0182     1.1291    -0.1312 N.am    
   2 C2            -0.2204    -0.0529     0.4842 C.2     
   3 O3             0.6278    -0.5029     1.2301 O.2     
   4 N4            -1.3629    -0.7359     0.2727 N.am    
   5 S5            -2.9633    -2.9409     0.7444 S.3     
   6 C6            -1.5716    -1.9554     0.9076 C.2     
   7 N7            -0.7432    -2.5365     1.7222 N.2     
   8 N8            -1.0873    -3.6470     2.2144 N.2     
   9 C9            -2.2444    -4.1057     1.8571 C.2     
  10 C10           -2.8655    -5.4016     2.3108 C.3     
  11 C11            1.1350     1.8781     0.1496 C.ar    
  12 C12            1.1076     3.2667     0.0424 C.ar    
  13 C13            2.2468     4.0035     0.3200 C.ar    
  14 C14            3.4128     3.3582     0.7042 C.ar    
  15 C15            3.4390     1.9749     0.8106 C.ar    
  16 C16            2.3010     1.2370     0.5395 C.ar    
  17 O17            4.5317     4.0818     0.9763 O.3     
  18 C18            4.4024     5.5049     0.9658 C.3     
  19 C19            5.4860     6.1220     1.8523 C.3     
  20 C20            4.5598     6.0208    -0.4660 C.3     
  21 O21           -0.0364     3.8979    -0.3348 O.3     
  22 C22            0.0161     5.3212    -0.4512 C.3     
  23 C23           -1.0876     5.7965    -1.3982 C.3     
  24 C24           -0.1873     5.9534     0.9271 C.3     
  25 Cl25           4.9000     1.1699     1.2912 Cl      
  26 H26           -0.6677     1.4601    -0.7711 H       
  27 H27           -2.0396    -0.3769    -0.3224 H       
  28 H28           -2.5780    -6.2011     1.6280 H       
  29 H29           -2.5169    -5.6394     3.3159 H       
  30 H30           -3.9509    -5.3018     2.3169 H       
  31 H31            2.2274     5.0801     0.2370 H       
  32 H32            2.3218     0.1608     0.6276 H       
  33 H33            3.4196     5.7833     1.3463 H       
  34 H34            6.4688     5.8436     1.4718 H       
  35 H35            5.3874     7.2075     1.8442 H       
  36 H36            5.3739     5.7545     2.8723 H       
  37 H37            5.5426     5.7424    -0.8465 H       
  38 H38            3.7878     5.5811    -1.0975 H       
  39 H39            4.4612     7.1063    -0.4740 H       
  40 H40            0.9873     5.6178    -0.8472 H       
  41 H41           -2.0588     5.5000    -1.0022 H       
  42 H42           -1.0475     6.8822    -1.4870 H       
  43 H43           -0.9427     5.3461    -2.3802 H       
  44 H44            0.5990     5.6148     1.6018 H       
  45 H45           -0.1473     7.0391     0.8384 H       
  46 H46           -1.1586     5.6569     1.3231 H       
@<TRIPOS>BOND
   1    1    2 am
   2    1   11 1
   3    1   26 1
   4    2    3 2
   5    2    4 am
   6    4    6 1
   7    4   27 1
   8    5    6 1
   9    5    9 1
  10    6    7 2
  11    7    8 1
  12    8    9 2
  13    9   10 1
  14   10   28 1
  15   10   29 1
  16   10   30 1
  17   11   12 ar
  18   11   16 ar
  19   12   13 ar
  20   12   21 1
  21   13   14 ar
  22   13   31 1
  23   14   15 ar
  24   14   17 1
  25   15   16 ar
  26   15   25 1
  27   16   32 1
  28   17   18 1
  29   18   19 1
  30   18   20 1
  31   18   33 1
  32   19   34 1
  33   19   35 1
  34   19   36 1
  35   20   37 1
  36   20   38 1
  37   20   39 1
  38   21   22 1
  39   22   23 1
  40   22   24 1
  41   22   40 1
  42   23   41 1
  43   23   42 1
  44   23   43 1
  45   24   44 1
  46   24   45 1
  47   24   46 1

#	End of record

