#	Name: ASD05490302
#	Creating user name:	WinNT
#	Creation time:	15. 06. 2019 21:01

#	Modifying user name:	WinNT
#	Modification time:	15. 06. 2019 21:01

#	Program:	/corina/corina34_cracker 3.40 0067  02.08.2006

@<TRIPOS>MOLECULE
ASD05490302
  40   42    0    0    0
SMALL
NO_CHARGES


@<TRIPOS>ATOM
   1 N1            -0.0159     1.3210     0.0093 N.ar    
   2 C2             0.0021    -0.0041     0.0020 C.ar    
   3 N3             1.1284    -0.6951    -0.0120 N.ar    
   4 C4             2.3034    -0.0736    -0.0199 C.ar    
   5 C5             2.3345     1.3308    -0.0131 C.ar    
   6 C6             1.1118     2.0235     0.0023 C.ar    
   7 N7             1.0831     3.4069     0.0091 N.pl3   
   8 O8            -1.1758    -0.6739     0.0097 O.3     
   9 C9             4.3904     0.6401    -0.0358 C.2     
  10 N10            3.6384     1.7016    -0.0234 N.2     
  11 C11           -2.3690     0.1122     0.0253 C.3     
  12 C12           -3.5885    -0.8118     0.0320 C.3     
  13 O13           -3.6126    -1.5599     1.2493 O.3     
  14 C14           -4.7182    -2.4588     1.3573 C.3     
  15 N15            3.6133    -0.4811    -0.0342 N.pl3   
  16 C16            4.1239    -2.3827    -1.4864 C.3     
  17 C17            4.0901    -1.8663    -0.0457 C.3     
  18 O18            5.4055    -1.9221     0.5099 O.3     
  19 C19            5.9581    -3.2387     0.5702 C.3     
  20 C20            6.0669    -3.8102    -0.8458 C.3     
  21 C21            4.6800    -3.8100    -1.4961 C.3     
  22 H22            1.9128     3.9093     0.0033 H       
  23 H23            0.2332     3.8743     0.0198 H       
  24 H24            5.4703     0.6457    -0.0456 H       
  25 H25           -2.3813     0.7364     0.9188 H       
  26 H26           -2.3983     0.7460    -0.8611 H       
  27 H27           -4.4971    -0.2149    -0.0457 H       
  28 H28           -3.5301    -1.4965    -0.8141 H       
  29 H29           -4.6833    -3.1777     0.5387 H       
  30 H30           -4.6643    -2.9884     2.3085 H       
  31 H31           -5.6503    -1.8960     1.3071 H       
  32 H32            3.1143    -2.3824    -1.8973 H       
  33 H33            4.7637    -1.7384    -2.0894 H       
  34 H34            3.4183    -2.4869     0.5473 H       
  35 H35            6.9489    -3.1967     1.0224 H       
  36 H36            5.3108    -3.8773     1.1712 H       
  37 H37            6.7459    -3.1947    -1.4359 H       
  38 H38            6.4468    -4.8308    -0.7985 H       
  39 H39            4.0137    -4.4647    -0.9344 H       
  40 H40            4.7592    -4.1635    -2.5242 H       
@<TRIPOS>BOND
   1    1    2 ar
   2    1    6 ar
   3    2    3 ar
   4    2    8 1
   5    3    4 ar
   6    4    5 ar
   7    4   15 1
   8    5    6 ar
   9    5   10 1
  10    6    7 1
  11    7   22 1
  12    7   23 1
  13    8   11 1
  14    9   10 2
  15    9   15 1
  16    9   24 1
  17   11   12 1
  18   11   25 1
  19   11   26 1
  20   12   13 1
  21   12   27 1
  22   12   28 1
  23   13   14 1
  24   14   29 1
  25   14   30 1
  26   14   31 1
  27   15   17 1
  28   16   17 1
  29   16   21 1
  30   16   32 1
  31   16   33 1
  32   17   18 1
  33   17   34 1
  34   18   19 1
  35   19   20 1
  36   19   35 1
  37   19   36 1
  38   20   21 1
  39   20   37 1
  40   20   38 1
  41   21   39 1
  42   21   40 1

#	End of record

