#	Name: ASD03092199
#	Creating user name:	WinNT
#	Creation time:	15. 06. 2019 20:32

#	Modifying user name:	WinNT
#	Modification time:	15. 06. 2019 20:32

#	Program:	/corina/corina34_cracker 3.40 0067  02.08.2006

@<TRIPOS>MOLECULE
ASD03092199
  48   50    0    0    0
SMALL
NO_CHARGES


@<TRIPOS>ATOM
   1 C1            -0.9876    -0.7709     0.3912 C.ar    
   2 N2             0.0932    -0.0626     0.6561 N.ar    
   3 C3             0.0500     1.2456     0.8198 C.ar    
   4 C4            -1.1421     1.9332     0.7197 C.ar    
   5 C5            -2.3139     1.2220     0.4399 C.ar    
   6 C6            -2.2203    -0.1633     0.2679 C.ar    
   7 C7             1.3198     1.9993     1.1208 C.3     
   8 C8            -0.8736    -2.2632     0.2148 C.3     
   9 C9            -3.6157     1.9166     0.3236 C.2     
  10 N10           -4.8046     1.3567     0.4228 N.2     
  11 C11           -5.7521     2.2820     0.2666 C.2     
  12 N12           -5.1827     3.4484     0.0649 N.2     
  13 N13           -3.7948     3.2380     0.1029 N.pl3   
  14 C14           -2.7486     4.2487    -0.0712 C.3     
  15 C15           -2.4371     4.8980     1.2786 C.3     
  16 C16           -1.2603     5.8631     1.1209 C.3     
  17 O17           -3.5840     5.6163     1.7377 O.3     
  18 C18           -0.8684     6.4179     2.4918 C.3     
  19 N19           -7.1280     2.0485     0.3098 N.pl3   
  20 C20           -7.6115     0.7463     0.4735 C.ar    
  21 C21           -8.8296     0.3818    -0.0844 C.ar    
  22 C22           -9.3055    -0.9066     0.0790 C.ar    
  23 C23           -8.5666    -1.8326     0.7997 C.ar    
  24 C24           -7.3521    -1.4696     1.3560 C.ar    
  25 C25           -6.8709    -0.1856     1.1896 C.ar    
  26 F26           -9.0327    -3.0906     0.9595 F       
  27 F27          -10.4906    -1.2628    -0.4632 F       
  28 H28           -1.1701     3.0042     0.8556 H       
  29 H29           -3.1010    -0.7493     0.0506 H       
  30 H30            1.7866     2.3123     0.1869 H       
  31 H31            1.0870     2.8777     1.7228 H       
  32 H32            2.0043     1.3532     1.6704 H       
  33 H33           -1.0068    -2.7542     1.1788 H       
  34 H34           -1.6423    -2.6070    -0.4773 H       
  35 H35            0.1106    -2.5077    -0.1846 H       
  36 H36           -1.8482     3.7757    -0.4634 H       
  37 H37           -3.0925     5.0109    -0.7704 H       
  38 H38           -2.1786     4.1252     2.0026 H       
  39 H39           -0.4120     5.3337     0.6871 H       
  40 H40           -1.5496     6.6847     0.4656 H       
  41 H41           -3.8711     6.3214     1.1414 H       
  42 H42           -0.0301     7.1054     2.3794 H       
  43 H43           -1.7168     6.9472     2.9256 H       
  44 H44           -0.5792     5.5963     3.1471 H       
  45 H45           -7.7486     2.7893     0.2264 H       
  46 H46           -9.4051     1.1036    -0.6450 H       
  47 H47           -6.7782    -2.1923     1.9169 H       
  48 H48           -5.9230     0.0964     1.6238 H       
@<TRIPOS>BOND
   1    1    2 ar
   2    1    8 1
   3    1    6 ar
   4    2    3 ar
   5    3    4 ar
   6    3    7 1
   7    4    5 ar
   8    4   28 1
   9    5    6 ar
  10    5    9 1
  11    6   29 1
  12    7   30 1
  13    7   31 1
  14    7   32 1
  15    8   33 1
  16    8   34 1
  17    8   35 1
  18    9   10 2
  19    9   13 1
  20   10   11 1
  21   11   12 2
  22   11   19 1
  23   12   13 1
  24   13   14 1
  25   14   15 1
  26   14   36 1
  27   14   37 1
  28   15   16 1
  29   15   17 1
  30   15   38 1
  31   16   18 1
  32   16   39 1
  33   16   40 1
  34   17   41 1
  35   18   42 1
  36   18   43 1
  37   18   44 1
  38   19   20 1
  39   19   45 1
  40   20   21 ar
  41   20   25 ar
  42   21   22 ar
  43   21   46 1
  44   22   23 ar
  45   22   27 1
  46   23   24 ar
  47   23   26 1
  48   24   25 ar
  49   24   47 1
  50   25   48 1

#	End of record

