#	Name: ASD01881093
#	Creating user name:	WinNT
#	Creation time:	15. 06. 2019 19:42

#	Modifying user name:	WinNT
#	Modification time:	15. 06. 2019 19:42

#	Program:	/corina/corina34_cracker 3.40 0067  02.08.2006

@<TRIPOS>MOLECULE
ASD01881093
  42   44    0    0    0
SMALL
NO_CHARGES


@<TRIPOS>ATOM
   1 C1            -0.0167     1.3834     0.0096 C.ar    
   2 C2             0.0021    -0.0041     0.0020 C.ar    
   3 C3             1.2021    -0.6935    -0.0131 C.ar    
   4 C4             2.4069     0.0229    -0.0207 C.ar    
   5 C5             2.3801     1.4357    -0.0129 C.ar    
   6 C6             1.1565     2.1055     0.0023 C.ar    
   7 C7             3.7067    -0.6486    -0.0361 C.2     
   8 C8             4.8300     0.0876    -0.0424 C.2     
   9 N9             4.8093     1.4539    -0.0346 N.am    
  10 C10            3.6587     2.1555    -0.0208 C.2     
  11 N11            1.2126    -2.0889    -0.0202 N.pl3   
  12 C12           -0.0506    -2.8309    -0.0118 C.3     
  13 C13            0.2359    -4.3104    -0.0220 C.ar    
  14 C14            0.0744    -5.0537     1.1318 C.ar    
  15 C15            0.3372    -6.4110     1.1226 C.ar    
  16 C16            0.7620    -7.0254    -0.0404 C.ar    
  17 C17            0.9243    -6.2829    -1.1951 C.ar    
  18 C18            0.6552    -4.9260    -1.1882 C.ar    
  19 Cl19           0.8584    -3.9930    -2.6380 Cl      
  20 O20            3.6800     3.3733    -0.0149 O.2     
  21 C21            6.0812     2.1808    -0.0419 C.3     
  22 C22            6.5110     2.4420    -1.4868 C.3     
  23 C23            7.8393     3.2012    -1.4945 C.3     
  24 H24           -0.9631     1.9038     0.0169 H       
  25 H25           -0.9289    -0.5514     0.0083 H       
  26 H26            1.1290     3.1851     0.0080 H       
  27 H27            3.7625    -1.7271    -0.0420 H       
  28 H28            5.7841    -0.4184    -0.0538 H       
  29 H29            2.0562    -2.5676    -0.0308 H       
  30 H30           -0.6154    -2.5764     0.8850 H       
  31 H31           -0.6327    -2.5674    -0.8948 H       
  32 H32           -0.2569    -4.5740     2.0410 H       
  33 H33            0.2108    -6.9915     2.0245 H       
  34 H34            0.9675    -8.0856    -0.0470 H       
  35 H35            1.2570    -6.7629    -2.1036 H       
  36 H36            5.9597     3.1309     0.4784 H       
  37 H37            6.8428     1.5855     0.4618 H       
  38 H38            6.6325     1.4919    -2.0072 H       
  39 H39            5.7494     3.0373    -1.9905 H       
  40 H40            7.7178     4.1513    -0.9742 H       
  41 H41            8.6010     2.6059    -0.9908 H       
  42 H42            8.1456     3.3873    -2.5239 H       
@<TRIPOS>BOND
   1    1    2 ar
   2    1    6 ar
   3    1   24 1
   4    2    3 ar
   5    2   25 1
   6    3    4 ar
   7    3   11 1
   8    4    5 ar
   9    4    7 1
  10    5    6 ar
  11    5   10 1
  12    6   26 1
  13    7    8 2
  14    7   27 1
  15    8    9 1
  16    8   28 1
  17    9   10 am
  18    9   21 1
  19   10   20 2
  20   11   12 1
  21   11   29 1
  22   12   13 1
  23   12   30 1
  24   12   31 1
  25   13   14 ar
  26   13   18 ar
  27   14   15 ar
  28   14   32 1
  29   15   16 ar
  30   15   33 1
  31   16   17 ar
  32   16   34 1
  33   17   18 ar
  34   17   35 1
  35   18   19 1
  36   21   22 1
  37   21   36 1
  38   21   37 1
  39   22   23 1
  40   22   38 1
  41   22   39 1
  42   23   40 1
  43   23   41 1
  44   23   42 1

#	End of record

