#	Name: ASD01813620
#	Creating user name:	WinNT
#	Creation time:	15. 06. 2019 19:30

#	Modifying user name:	WinNT
#	Modification time:	15. 06. 2019 19:30

#	Program:	/corina/corina34_cracker 3.40 0067  02.08.2006

@<TRIPOS>MOLECULE
ASD01813620
  33   35    0    0    0
SMALL
NO_CHARGES


@<TRIPOS>ATOM
   1 C1             0.0976     1.4753     0.3539 C.ar    
   2 C2             0.0796     0.0881     0.3462 C.ar    
   3 C3             1.2499    -0.6307     0.2163 C.ar    
   4 C4             2.4671     0.0383     0.0911 C.ar    
   5 C5             2.4805     1.4430     0.0995 C.ar    
   6 C6             1.2889     2.1559     0.2316 C.ar    
   7 N7             3.6442    -0.6677    -0.0389 N.pl3   
   8 C8             4.8372    -0.0728    -0.1616 C.2     
   9 C9             4.9772     1.3006    -0.1669 C.2     
  10 C10            3.7744     2.1383    -0.0337 C.2     
  11 C11            6.3049     1.9159    -0.3029 C.2     
  12 O12            6.4286     3.2583    -0.3067 O.3     
  13 O13            7.2917     1.2143    -0.4118 O.2     
  14 O14            3.8446     3.3548    -0.0331 O.2     
  15 F15            1.2169    -1.9813     0.2108 F       
  16 C16            3.5871    -2.1316    -0.0425 C.3     
  17 C17            3.4437    -2.6253    -1.4591 C.ar    
  18 C18            4.5564    -2.7706    -2.2648 C.ar    
  19 N19            4.4396    -3.2020    -3.5058 N.ar    
  20 C20            3.2665    -3.5106    -4.0252 C.ar    
  21 C21            2.1083    -3.3900    -3.2774 C.ar    
  22 C22            2.1935    -2.9448    -1.9680 C.ar    
  23 Cl23           3.1751    -4.0736    -5.6648 Cl      
  24 H24           -0.8273     2.0243     0.4519 H       
  25 H25           -0.8605    -0.4346     0.4432 H       
  26 H26            1.3002     3.2358     0.2375 H       
  27 H27            5.7196    -0.6877    -0.2593 H       
  28 H28            7.3221     3.6166    -0.3986 H       
  29 H29            4.5036    -2.5321     0.3908 H       
  30 H30            2.7318    -2.4633     0.5462 H       
  31 H31            5.5335    -2.5277    -1.8741 H       
  32 H32            1.1506    -3.6434    -3.7077 H       
  33 H33            1.3066    -2.8412    -1.3606 H       
@<TRIPOS>BOND
   1    1    2 ar
   2    1    6 ar
   3    1   24 1
   4    2    3 ar
   5    2   25 1
   6    3    4 ar
   7    3   15 1
   8    4    5 ar
   9    4    7 1
  10    5    6 ar
  11    5   10 1
  12    6   26 1
  13    7    8 1
  14    7   16 1
  15    8    9 2
  16    8   27 1
  17    9   10 1
  18    9   11 1
  19   10   14 2
  20   11   12 1
  21   11   13 2
  22   12   28 1
  23   16   17 1
  24   16   29 1
  25   16   30 1
  26   17   18 ar
  27   17   22 ar
  28   18   19 ar
  29   18   31 1
  30   19   20 ar
  31   20   21 ar
  32   20   23 1
  33   21   22 ar
  34   21   32 1
  35   22   33 1

#	End of record

