#	Name: ASD07931852
#	Creating user name:	WinNT
#	Creation time:	15. 06. 2019 21:13

#	Modifying user name:	WinNT
#	Modification time:	15. 06. 2019 21:13

#	Program:	/corina/corina34_cracker 3.40 0067  02.08.2006

@<TRIPOS>MOLECULE
ASD07931852
  66   69    0    0    0
SMALL
NO_CHARGES


@<TRIPOS>ATOM
   1 O1            -1.4361     2.1704     0.7224 O.3     
   2 C2            -2.0053     0.8845     1.0204 C.3     
   3 C3            -0.8468    -0.1308     1.0617 C.3     
   4 C4             0.4178     0.7260     0.8106 C.3     
   5 C5            -0.0712     2.1464     1.1926 C.3     
   6 O6            -2.6608     0.9256     2.2895 O.3     
   7 C7            -2.9906     0.4992    -0.0528 C.ar    
   8 C8            -2.8285     0.9715    -1.3418 C.ar    
   9 C9            -3.7323     0.6180    -2.3262 C.ar    
  10 C10           -4.7979    -0.2081    -2.0217 C.ar    
  11 C11           -4.9595    -0.6812    -0.7330 C.ar    
  12 C12           -4.0533    -0.3313     0.2505 C.ar    
  13 C13           -5.7838    -0.5927    -3.0947 C.3     
  14 F14           -5.3552    -1.7671    -3.7226 F       
  15 F15           -7.0411    -0.8040    -2.5187 F       
  16 F16           -5.8704     0.4361    -4.0388 F       
  17 F17           -0.7800    -0.7467     2.3160 F       
  18 C18            0.7629     3.2131     0.4802 C.3     
  19 O19            0.2999     4.5110     0.8586 O.3     
  20 Si20           1.1462     5.7368     0.1944 Si      
  21 C21            0.8095     7.3111     1.1419 C.ar    
  22 C22            1.8578     8.0224     1.6953 C.ar    
  23 C23            1.6087     9.1873     2.3965 C.ar    
  24 C24            0.3113     9.6412     2.5440 C.ar    
  25 C25           -0.7369     8.9305     1.9899 C.ar    
  26 C26           -0.4873     7.7678     1.2850 C.ar    
  27 C27            2.9711     5.3447     0.2667 C.ar    
  28 C28            3.6830     5.5793     1.4282 C.ar    
  29 C29            5.0335     5.2892     1.4817 C.ar    
  30 C30            5.6720     4.7640     0.3738 C.ar    
  31 C31            4.9599     4.5285    -0.7874 C.ar    
  32 C32            3.6085     4.8146    -0.8395 C.ar    
  33 C33            0.6284     5.9582    -1.5815 C.3     
  34 C34           -0.7617     6.5954    -1.6319 C.3     
  35 C35            1.6317     6.8659    -2.2959 C.3     
  36 C36            0.5900     4.5950    -2.2752 C.3     
  37 H37           -0.9648    -0.8764     0.2753 H       
  38 H38            1.2366     0.4097     1.4569 H       
  39 H39            0.7135     0.6853    -0.2377 H       
  40 H40           -0.0348     2.2873     2.2728 H       
  41 H41           -3.3940     1.5546     2.3333 H       
  42 H42           -1.9959     1.6170    -1.5797 H       
  43 H43           -3.6060     0.9877    -3.3331 H       
  44 H44           -5.7923    -1.3264    -0.4950 H       
  45 H45           -4.1775    -0.7038     1.2565 H       
  46 H46            1.8100     3.1041     0.7628 H       
  47 H47            0.6631     3.0919    -0.5984 H       
  48 H48            2.8713     7.6677     1.5800 H       
  49 H49            2.4276     9.7426     2.8294 H       
  50 H50            0.1166    10.5510     3.0925 H       
  51 H51           -1.7505     9.2849     2.1054 H       
  52 H52           -1.3059     7.2145     0.8489 H       
  53 H53            3.1841     5.9896     2.2937 H       
  54 H54            5.5898     5.4731     2.3889 H       
  55 H55            6.7273     4.5380     0.4154 H       
  56 H56            5.4589     4.1186    -1.6530 H       
  57 H57            3.0514     4.6272    -1.7455 H       
  58 H58           -0.7505     7.5357    -1.0807 H       
  59 H59           -1.0368     6.7855    -2.6693 H       
  60 H60           -1.4880     5.9188    -1.1815 H       
  61 H61            2.5954     6.3609    -2.3623 H       
  62 H62            1.2689     7.0898    -3.2991 H       
  63 H63            1.7456     7.7937    -1.7352 H       
  64 H64           -0.2237     3.9995    -1.8613 H       
  65 H65            0.4300     4.7357    -3.3442 H       
  66 H66            1.5364     4.0787    -2.1144 H       
@<TRIPOS>BOND
   1    1    2 1
   2    1    5 1
   3    2    6 1
   4    2    7 1
   5    2    3 1
   6    3    4 1
   7    3   17 1
   8    3   37 1
   9    4    5 1
  10    4   38 1
  11    4   39 1
  12    5   18 1
  13    5   40 1
  14    6   41 1
  15    7    8 ar
  16    7   12 ar
  17    8    9 ar
  18    8   42 1
  19    9   10 ar
  20    9   43 1
  21   10   11 ar
  22   10   13 1
  23   11   12 ar
  24   11   44 1
  25   12   45 1
  26   13   14 1
  27   13   15 1
  28   13   16 1
  29   18   19 1
  30   18   46 1
  31   18   47 1
  32   19   20 1
  33   20   21 1
  34   20   27 1
  35   20   33 1
  36   21   22 ar
  37   21   26 ar
  38   22   23 ar
  39   22   48 1
  40   23   24 ar
  41   23   49 1
  42   24   25 ar
  43   24   50 1
  44   25   26 ar
  45   25   51 1
  46   26   52 1
  47   27   28 ar
  48   27   32 ar
  49   28   29 ar
  50   28   53 1
  51   29   30 ar
  52   29   54 1
  53   30   31 ar
  54   30   55 1
  55   31   32 ar
  56   31   56 1
  57   32   57 1
  58   33   34 1
  59   33   36 1
  60   33   35 1
  61   34   58 1
  62   34   59 1
  63   34   60 1
  64   35   61 1
  65   35   62 1
  66   35   63 1
  67   36   64 1
  68   36   65 1
  69   36   66 1

#	End of record

