#	Name: ASD01840134
#	Creating user name:	WinNT
#	Creation time:	15. 06. 2019 19:37

#	Modifying user name:	WinNT
#	Modification time:	15. 06. 2019 19:37

#	Program:	/corina/corina34_cracker 3.40 0067  02.08.2006

@<TRIPOS>MOLECULE
ASD01840134
  42   44    0    0    0
SMALL
NO_CHARGES


@<TRIPOS>ATOM
   1 C1             0.2614     1.7551    -0.9985 C.ar    
   2 C2             0.3847     0.5319    -1.6201 C.ar    
   3 N3             1.4997    -0.1674    -1.4974 N.ar    
   4 N4             2.5005     0.2430    -0.8118 N.ar    
   5 C5             1.3547     2.2266    -0.2367 C.ar    
   6 C6             1.5106     3.4573     0.5163 C.2     
   7 C7             2.4930     1.4121    -0.1671 C.ar    
   8 S8             3.7249     2.1824     0.8226 S.3     
   9 C9             2.7121     3.5788     1.1333 C.2     
  10 C10           -0.7556    -0.0109    -2.4424 C.3     
  11 C11           -0.9997     2.5694    -1.1319 C.3     
  12 C12            3.1107     4.7245     1.9497 C.2     
  13 N13            0.5181     4.4246     0.5973 N.pl3   
  14 O14            2.3408     5.6537     2.1117 O.2     
  15 N15            4.3302     4.7520     2.5228 N.am    
  16 C16            4.7295     5.8999     3.3407 C.3     
  17 C17            6.1273     5.6841     3.8608 C.ar    
  18 C18            6.3510     4.7859     4.8913 C.ar    
  19 C19            7.1853     6.3785     3.3052 C.ar    
  20 C20            8.4680     6.1827     3.7801 C.ar    
  21 C21            8.6950     5.2881     4.8159 C.ar    
  22 C22            7.6337     4.5874     5.3699 C.ar    
  23 O23            9.9562     5.0948     5.2837 O.3     
  24 C24           10.1155     4.1588     6.3517 C.3     
  25 F25            5.3163     4.1040     5.4294 F       
  26 H26           -0.6490     0.3208    -3.4752 H       
  27 H27           -0.7424    -1.1003    -2.4075 H       
  28 H28           -1.7003     0.3541    -2.0393 H       
  29 H29           -1.6440     2.3848    -0.2724 H       
  30 H30           -0.7454     3.6285    -1.1747 H       
  31 H31           -1.5216     2.2839    -2.0452 H       
  32 H32           -0.4027     4.1926     0.3992 H       
  33 H33            0.7455     5.3326     0.8518 H       
  34 H34            4.9435     4.0117     2.3937 H       
  35 H35            4.7032     6.8050     2.7340 H       
  36 H36            4.0418     6.0049     4.1799 H       
  37 H37            7.0092     7.0748     2.4986 H       
  38 H38            9.2938     6.7257     3.3448 H       
  39 H39            7.8087     3.8878     6.1738 H       
  40 H40           11.1680     4.0997     6.6290 H       
  41 H41            9.5310     4.4858     7.2117 H       
  42 H42            9.7691     3.1769     6.0291 H       
@<TRIPOS>BOND
   1    1    2 ar
   2    1    5 ar
   3    1   11 1
   4    2    3 ar
   5    2   10 1
   6    3    4 ar
   7    4    7 ar
   8    5    7 ar
   9    5    6 1
  10    6    9 2
  11    6   13 1
  12    7    8 1
  13    8    9 1
  14    9   12 1
  15   10   26 1
  16   10   27 1
  17   10   28 1
  18   11   29 1
  19   11   30 1
  20   11   31 1
  21   12   14 2
  22   12   15 am
  23   13   32 1
  24   13   33 1
  25   15   16 1
  26   15   34 1
  27   16   17 1
  28   16   35 1
  29   16   36 1
  30   17   19 ar
  31   17   18 ar
  32   18   22 ar
  33   18   25 1
  34   19   20 ar
  35   19   37 1
  36   20   21 ar
  37   20   38 1
  38   21   22 ar
  39   21   23 1
  40   22   39 1
  41   23   24 1
  42   24   40 1
  43   24   41 1
  44   24   42 1

#	End of record

