#	Name: ASD06590006
#	Creating user name:	WinNT
#	Creation time:	15. 06. 2019 21:06

#	Modifying user name:	WinNT
#	Modification time:	15. 06. 2019 21:06

#	Program:	/corina/corina34_cracker 3.40 0067  02.08.2006

@<TRIPOS>MOLECULE
ASD06590006
 321  325    0    0    0
SMALL
NO_CHARGES


@<TRIPOS>ATOM
   1 C1            -5.0358     0.4709    17.5648 C.2     
   2 O2            -5.3299    -0.5981    18.0563 O.2     
   3 N3            -2.8470     0.0930    18.5424 N.am    
   4 C4            -3.6460     1.0256    17.7436 C.3     
   5 C5            -2.9917     1.2136    16.3734 C.3     
   6 C6            -1.6312     1.8917    16.5466 C.3     
   7 C7            -0.9229     1.9672    15.1925 C.3     
   8 C8            -1.8322     3.3053    17.0964 C.3     
   9 C9            -7.9076     1.1886    15.4198 C.2     
  10 O10           -7.2761     1.9708    14.7414 O.2     
  11 N11           -5.9502     1.1602    16.8541 N.am    
  12 C12           -7.2994     0.6182    16.6752 C.3     
  13 C13           -8.1648     0.9968    17.8787 C.3     
  14 C14          -11.2469     1.3535    13.9419 C.2     
  15 O15          -11.7722     0.9122    14.9420 O.2     
  16 N16           -9.1531     0.8294    15.0511 N.am    
  17 C17           -9.7443     1.3838    13.8308 C.3     
  18 C18           -9.3051     0.5489    12.6263 C.3     
  19 C19           -7.8150     0.6784    12.4418 C.ar    
  20 C20           -6.9618    -0.2068    13.0744 C.ar    
  21 C21           -5.5955    -0.0900    12.9073 C.ar    
  22 C22           -5.0797     0.9163    12.1036 C.ar    
  23 O23           -3.7360     1.0331    11.9373 O.3     
  24 C24           -5.9379     1.8030    11.4696 C.ar    
  25 C25           -7.3037     1.6787    11.6358 C.ar    
  26 C26          -14.0729     1.7554    11.6582 C.2     
  27 O27          -13.3548     1.7571    10.6808 O.2     
  28 N28          -12.0070     1.8168    12.9299 N.am    
  29 C29          -13.4677     1.7873    13.0379 C.3     
  30 C30          -13.9497     3.0370    13.7775 C.3     
  31 C31          -13.4443     3.0070    15.1969 C.ar    
  32 C32          -12.2235     3.5758    15.5080 C.ar    
  33 C33          -11.7598     3.5483    16.8100 C.ar    
  34 C34          -12.5172     2.9522    17.8009 C.ar    
  35 C35          -13.7385     2.3841    17.4900 C.ar    
  36 C36          -14.2041     2.4155    16.1888 C.ar    
  37 C37          -17.3940     2.2657    10.2183 C.2     
  38 O38          -17.8507     2.6603    11.2703 O.2     
  39 N39          -15.4122     1.7250    11.5103 N.am    
  40 C40          -16.0005     1.6939    10.1690 C.3     
  41 C41          -16.0598     0.2483     9.6714 C.3     
  42 C42          -14.6382    -0.2915     9.5024 C.3     
  43 C43          -14.6974    -1.7371     9.0048 C.3     
  44 N44          -13.3362    -2.2541     8.8430 N.pl3   
  45 C45          -13.1376    -3.5413     8.4029 C.2     
  46 N46          -14.1603    -4.3018     8.1295 N.2     
  47 N47          -11.8602    -4.0264     8.2510 N.pl3   
  48 C48          -20.3001     2.3358     8.0019 C.2     
  49 O49          -19.7974     1.5507     7.2262 O.2     
  50 N50          -18.1327     2.3386     9.0934 N.am    
  51 C51          -19.4873     2.8944     9.1413 C.3     
  52 C52          -19.4180     4.4180     9.0195 C.3     
  53 C53          -18.7002     4.9952    10.2411 C.3     
  54 C54          -18.6309     6.5188    10.1193 C.3     
  55 N55          -17.9435     7.0715    11.2890 N.pl3   
  56 C56          -17.7613     8.4295    11.4012 C.2     
  57 N57          -17.1498     8.9213    12.4419 N.2     
  58 N58          -18.2241     9.2689    10.4156 N.pl3   
  59 C59          -23.4892     3.1229     6.3977 C.2     
  60 O60          -23.6106     4.1570     7.0198 O.2     
  61 N61          -21.5857     2.7087     7.8449 N.am    
  62 C62          -22.3759     2.1657     6.7373 C.3     
  63 C63          -22.9704     0.8170     7.1480 C.3     
  64 C64          -21.8414    -0.1910     7.3722 C.3     
  65 C65          -22.4259    -1.5017     7.9025 C.3     
  66 C66          -21.1210    -0.4526     6.0480 C.3     
  67 C67          -26.5627     3.0058     4.4221 C.2     
  68 O68          -26.4732     1.8085     4.2510 O.2     
  69 N69          -24.3499     2.8299     5.4028 N.am    
  70 C70          -25.4322     3.7605     5.0728 C.3     
  71 C71          -24.9105     4.8283     4.1091 C.3     
  72 C72          -23.8647     5.6629     4.8025 C.2     
  73 C73          -22.6086     5.8791     4.3676 C.2     
  74 N74          -22.0032     6.6874     5.2916 N.pl3   
  75 C75          -22.9111     6.9372     6.2596 C.2     
  76 N76          -24.0235     6.3253     5.9579 N.2     
  77 C77          -29.5700     3.8672     2.5308 C.2     
  78 O78          -29.2519     5.0347     2.4492 O.2     
  79 N79          -27.6732     3.6614     4.0304 N.am    
  80 C80          -28.7722     2.9277     3.3979 C.3     
  81 C81          -29.6796     2.3367     4.4788 C.3     
  82 O82          -30.3027     3.3954     5.2088 O.3     
  83 C83          -32.8170     3.7980     0.8529 C.2     
  84 O84          -33.0915     2.6818     1.2398 O.2     
  85 N85          -30.6370     3.4100     1.8459 N.am    
  86 C86          -31.4125     4.3233     1.0030 C.3     
  87 C87          -30.7565     4.4262    -0.3754 C.3     
  88 C88          -29.3375     4.9782    -0.2250 C.3     
  89 O89          -30.7024     3.1303    -0.9751 O.3     
  90 C90          -35.7687     4.7763    -1.0689 C.2     
  91 O91          -35.1761     5.6751    -1.6274 O.2     
  92 N92          -33.7680     4.5685     0.2887 N.am    
  93 C93          -35.1096     4.0264     0.0600 C.3     
  94 C94          -35.9459     4.1812     1.3319 C.3     
  95 C95          -35.3456     3.3199     2.4449 C.3     
  96 C96          -36.1818     3.4747     3.7167 C.3     
  97 N97          -35.6071     2.6500     4.7824 N.pl3   
  98 C98          -36.1927     2.6278     6.0261 C.2     
  99 N99          -37.2594     3.3404     6.2570 N.2     
 100 N100         -35.6533     1.8538     7.0262 N.pl3   
 101 C101         -38.4420     6.2820    -2.1612 C.2     
 102 O102         -38.5187     6.5444    -0.9796 O.2     
 103 N103         -37.0167     4.4482    -1.4578 N.am    
 104 C104         -37.6186     5.1063    -2.6201 C.3     
 105 C105         -38.5163     4.1128    -3.3605 C.3     
 106 C106         -37.6721     3.0042    -3.9345 C.2     
 107 O107         -36.4829     2.9639    -3.6999 O.2     
 108 N108         -38.2388     2.0574    -4.7085 N.am    
 109 C109         -40.9620     8.4793    -3.6393 C.2     
 110 O110         -41.0463     7.8012    -4.6412 O.2     
 111 N111         -39.0934     7.0419    -3.0639 N.am    
 112 C112         -39.8939     8.1849    -2.6178 C.3     
 113 C113         -38.9901     9.4090    -2.4576 C.3     
 114 C114         -37.9988     9.1600    -1.3501 C.ar    
 115 C115         -36.7757     8.5819    -1.6358 C.ar    
 116 C116         -35.8655     8.3523    -0.6223 C.ar    
 117 C117         -36.1793     8.7026     0.6829 C.ar    
 118 O118         -35.2853     8.4781     1.6815 O.3     
 119 C119         -37.4070     9.2829     0.9668 C.ar    
 120 C120         -38.3117     9.5153    -0.0510 C.ar    
 121 C121         -43.2363    11.2787    -4.2856 C.2     
 122 O122         -43.0262    11.8410    -3.2318 O.2     
 123 N123         -41.8236     9.4962    -3.4393 N.am    
 124 C124         -42.7907     9.8524    -4.4806 C.3     
 125 C125         -44.0025     8.9227    -4.3906 C.3     
 126 C126         -45.0326     9.3236    -5.4485 C.3     
 127 C127         -44.4699     9.0377    -6.8423 C.3     
 128 C128         -44.6297     9.0354    -2.9997 C.3     
 129 C129         -45.6992    13.2742    -4.4287 C.2     
 130 O130         -46.2209    12.2171    -4.1636 O.2     
 131 N131         -43.8682    11.9295    -5.2824 N.am    
 132 C132         -44.3396    13.3015    -5.0782 C.3     
 133 C133         -44.4337    14.0147    -6.4286 C.3     
 134 C134         -43.0552    14.1509    -7.0219 C.2     
 135 C135         -42.6724    13.7242    -8.2405 C.2     
 136 N136         -41.3492    14.0473    -8.3757 N.pl3   
 137 C137         -40.9691    14.6607    -7.2342 C.2     
 138 N138         -41.9959    14.7236    -6.4311 N.2     
 139 O139         -46.3306    14.4241    -4.1447 O.3     
 140 C140          -1.7933     0.5444    19.2512 C.2     
 141 O141          -1.5065     1.7225    19.2277 O.2     
 142 C142          12.7531    -1.8896    30.8126 C.3     
 143 C143          11.9187    -0.9156    29.9784 C.3     
 144 C144          10.7925    -1.6789    29.2784 C.3     
 145 C145           9.9581    -0.7050    28.4441 C.3     
 146 C146           8.8318    -1.4683    27.7442 C.3     
 147 C147           7.9974    -0.4943    26.9099 C.3     
 148 C148           6.8712    -1.2576    26.2099 C.3     
 149 C149           6.0368    -0.2837    25.3756 C.3     
 150 C150           4.9105    -1.0469    24.6757 C.3     
 151 C151           4.0761    -0.0730    23.8414 C.3     
 152 C152           2.9499    -0.8363    23.1415 C.3     
 153 C153           2.1155     0.1377    22.3072 C.3     
 154 C154           0.9893    -0.6256    21.6072 C.3     
 155 C155           0.1548     0.3483    20.7729 C.3     
 156 C156          -0.9714    -0.4150    20.0730 C.3     
 157 H157          -3.0764    -0.8493    18.5612 H       
 158 H158          -3.7014     1.9867    18.2547 H       
 159 H159          -2.8555     0.2415    15.8994 H       
 160 H160          -3.6311     1.8364    15.7478 H       
 161 H161          -1.0233     1.3140    17.2429 H       
 162 H162          -1.5308     2.5449    14.4962 H       
 163 H163           0.0464     2.4503    15.3159 H       
 164 H164          -0.7797     0.9601    14.8007 H       
 165 H165          -2.3368     3.2515    18.0611 H       
 166 H166          -0.8630     3.7884    17.2198 H       
 167 H167          -2.4401     3.8829    16.4001 H       
 168 H168          -5.7149     2.0152    16.4610 H       
 169 H169          -7.2468    -0.4674    16.5926 H       
 170 H170          -9.1687     0.5935    17.7456 H       
 171 H171          -7.7250     0.5842    18.7867 H       
 172 H172          -8.2174     2.0824    17.9613 H       
 173 H173          -9.6581     0.2037    15.5937 H       
 174 H174          -9.4104     2.4132    13.7005 H       
 175 H175          -9.5606    -0.4970    12.7966 H       
 176 H176          -9.8144     0.9062    11.7313 H       
 177 H177          -7.3638    -0.9901    13.7000 H       
 178 H178          -4.9294    -0.7812    13.4022 H       
 179 H179          -3.3869     0.5287    11.1898 H       
 180 H180          -5.5388     2.5874    10.8437 H       
 181 H181          -7.9725     2.3659    11.1389 H       
 182 H182         -11.5869     2.1698    12.1300 H       
 183 H183         -13.7734     0.8982    13.5894 H       
 184 H184         -13.5690     3.9261    13.2749 H       
 185 H185         -15.0395     3.0598    13.7803 H       
 186 H186         -11.6317     4.0415    14.7338 H       
 187 H187         -10.8057     3.9921    17.0529 H       
 188 H188         -12.1547     2.9300    18.8180 H       
 189 H189         -14.3301     1.9182    18.2641 H       
 190 H190         -15.1599     1.9750    15.9465 H       
 191 H191         -15.9865     1.7236    12.2920 H       
 192 H192         -15.3882     2.2872     9.4898 H       
 193 H193         -16.5971    -0.3636    10.3959 H       
 194 H194         -16.5774     0.2150     8.7127 H       
 195 H195         -14.1009     0.3204     8.7779 H       
 196 H196         -14.1205    -0.2582    10.4611 H       
 197 H197         -15.2347    -2.3491     9.7293 H       
 198 H198         -15.2151    -1.7705     8.0462 H       
 199 H199         -12.5752    -1.6881     9.0464 H       
 200 H200         -14.0201    -5.2099     7.8190 H       
 201 H201         -11.0991    -3.4605     8.4544 H       
 202 H202         -11.7200    -4.9346     7.9405 H       
 203 H203         -17.7675     2.0230     8.2520 H       
 204 H204         -19.9566     2.6266    10.0880 H       
 205 H205         -18.8701     4.6857     8.1160 H       
 206 H206         -20.4279     4.8245     8.9658 H       
 207 H207         -19.2481     4.7275    11.1446 H       
 208 H208         -17.6902     4.5887    10.2948 H       
 209 H209         -18.0830     6.7865     9.2158 H       
 210 H210         -19.6408     6.9253    10.0656 H       
 211 H211         -17.6170     6.4792    11.9844 H       
 212 H212         -17.0212     9.8795    12.5211 H       
 213 H213         -18.6792     8.9030     9.6411 H       
 214 H214         -18.0956    10.2271    10.4948 H       
 215 H215         -21.9878     3.3366     8.4654 H       
 216 H216         -21.7350     2.0300     5.8660 H       
 217 H217         -23.5393     0.9365     8.0701 H       
 218 H218         -23.6294     0.4550     6.3588 H       
 219 H219         -21.1340     0.2111     8.0974 H       
 220 H220         -23.1333    -1.9038     7.1773 H       
 221 H221         -21.6216    -2.2198     8.0622 H       
 222 H222         -22.9391    -1.3153     8.8459 H       
 223 H223         -20.7046     0.4812     5.6702 H       
 224 H224         -20.3167    -1.1708     6.2077 H       
 225 H225         -21.8284    -0.8548     5.3228 H       
 226 H226         -24.2528     2.0029     4.9053 H       
 227 H227         -25.7914     4.2381     5.9844 H       
 228 H228         -24.4706     4.3461     3.2362 H       
 229 H229         -25.7353     5.4675     3.7941 H       
 230 H230         -22.1642     5.4893     3.4637 H       
 231 H231         -21.0923     7.0189     5.2574 H       
 232 H232         -22.7452     7.5459     7.1362 H       
 233 H233         -27.7448     4.6190     4.1674 H       
 234 H234         -28.3664     2.1232     2.7845 H       
 235 H235         -30.4456     1.7177     4.0116 H       
 236 H236         -29.0849     1.7272     5.1591 H       
 237 H237         -30.8937     3.0935     5.9121 H       
 238 H238         -30.8914     2.4762     1.9112 H       
 239 H239         -31.4410     5.3095     1.4663 H       
 240 H240         -31.3413     5.0948    -1.0072 H       
 241 H241         -28.7233     4.2588     0.3167 H       
 242 H242         -28.9086     5.1518    -1.2119 H       
 243 H243         -29.3696     5.9172     0.3275 H       
 244 H244         -31.5683     2.7188    -1.1013 H       
 245 H245         -33.5641     5.4820     0.0341 H       
 246 H246         -35.0354     2.9705    -0.1998 H       
 247 H247         -35.9463     5.2263     1.6414 H       
 248 H248         -36.9688     3.8600     1.1355 H       
 249 H249         -35.3451     2.2748     2.1353 H       
 250 H250         -34.3227     3.6412     2.6412 H       
 251 H251         -36.1823     4.5198     4.0263 H       
 252 H252         -37.2047     3.1535     3.5204 H       
 253 H253         -34.8133     2.1196     4.6106 H       
 254 H254         -37.6726     3.3247     7.1344 H       
 255 H255         -34.8596     1.3235     6.8544 H       
 256 H256         -36.0666     1.8381     7.9036 H       
 257 H257         -37.5165     3.7763    -0.9681 H       
 258 H258         -36.8312     5.4532    -3.2893 H       
 259 H259         -39.2439     3.6931    -2.6660 H       
 260 H260         -39.0386     4.6267    -4.1675 H       
 261 H261         -39.1899     2.0897    -4.8961 H       
 262 H262         -37.6955     1.3438    -5.0779 H       
 263 H263         -39.0321     6.8320    -4.0089 H       
 264 H264         -40.3607     7.9502    -1.6612 H       
 265 H265         -38.4554     9.5903    -3.3899 H       
 266 H266         -39.5980    10.2798    -2.2121 H       
 267 H267         -36.5319     8.3094    -2.6520 H       
 268 H268         -34.9105     7.9001    -0.8458 H       
 269 H269         -34.6786     9.2144     1.8392 H       
 270 H270         -37.6538     9.5562     1.9821 H       
 271 H271         -39.2658     9.9710     0.1688 H       
 272 H272         -41.8035     9.9923    -2.6060 H       
 273 H273         -42.3246     9.7480    -5.4603 H       
 274 H274         -43.6852     7.8944    -4.5639 H       
 275 H275         -45.9472     8.7494    -5.3011 H       
 276 H276         -45.2525    10.3873    -5.3567 H       
 277 H277         -45.1712     9.3934    -7.5972 H       
 278 H278         -43.5161     9.5517    -6.9616 H       
 279 H279         -44.3216     7.9644    -6.9611 H       
 280 H280         -45.0227    10.0423    -2.8588 H       
 281 H281         -45.4404     8.3127    -2.9070 H       
 282 H282         -43.8728     8.8315    -2.2422 H       
 283 H283         -44.0110    11.4895    -6.1350 H       
 284 H284         -43.6399    13.8340    -4.4341 H       
 285 H285         -45.0638    13.4345    -7.1027 H       
 286 H286         -44.8679    15.0045    -6.2872 H       
 287 H287         -43.2906    13.2230    -8.9706 H       
 288 H288         -40.7890    13.8690    -9.1473 H       
 289 H289         -39.9803    15.0400    -7.0225 H       
 290 H290         -47.2006    14.3560    -3.7283 H       
 291 H291          13.5555    -1.3458    31.3113 H       
 292 H292          12.1175    -2.3650    31.5597 H       
 293 H293          13.1809    -2.6518    30.1614 H       
 294 H294          11.4909    -0.1534    30.6296 H       
 295 H295          12.5543    -0.4402    29.2313 H       
 296 H296          11.2202    -2.4411    28.6271 H       
 297 H297          10.1568    -2.1544    30.0254 H       
 298 H298           9.5303     0.0572    29.0954 H       
 299 H299          10.5937    -0.2295    27.6971 H       
 300 H300           9.2596    -2.2305    27.0929 H       
 301 H301           8.1962    -1.9437    28.4912 H       
 302 H302           7.5697     0.2679    27.5612 H       
 303 H303           8.6330    -0.0189    26.1629 H       
 304 H304           7.2989    -2.0198    25.5586 H       
 305 H305           6.2356    -1.7331    26.9569 H       
 306 H306           5.6090     0.4785    26.0269 H       
 307 H307           6.6724     0.1918    24.6286 H       
 308 H308           5.3383    -1.8091    24.0244 H       
 309 H309           4.2749    -1.5224    25.4227 H       
 310 H310           3.6484     0.6892    24.4927 H       
 311 H311           4.7117     0.4025    23.0944 H       
 312 H312           3.3777    -1.5985    22.4902 H       
 313 H313           2.3143    -1.3117    23.8885 H       
 314 H314           1.6877     0.8999    22.9585 H       
 315 H315           2.7511     0.6131    21.5601 H       
 316 H316           1.4170    -1.3878    20.9559 H       
 317 H317           0.3536    -1.1011    22.3542 H       
 318 H318          -0.2729     1.1105    21.4242 H       
 319 H319           0.7905     0.8238    20.0259 H       
 320 H320          -1.6070    -0.8904    20.8200 H       
 321 H321          -0.5436    -1.1772    19.4217 H       
@<TRIPOS>BOND
   1    1    2 2
   2    1    4 1
   3    1   11 am
   4    3  140 am
   5    3    4 1
   6    3  157 1
   7    4    5 1
   8    4  158 1
   9    5    6 1
  10    5  159 1
  11    5  160 1
  12    6    7 1
  13    6    8 1
  14    6  161 1
  15    7  162 1
  16    7  163 1
  17    7  164 1
  18    8  165 1
  19    8  166 1
  20    8  167 1
  21    9   10 2
  22    9   12 1
  23    9   16 am
  24   11   12 1
  25   11  168 1
  26   12   13 1
  27   12  169 1
  28   13  170 1
  29   13  171 1
  30   13  172 1
  31   14   15 2
  32   14   17 1
  33   14   28 am
  34   16   17 1
  35   16  173 1
  36   17   18 1
  37   17  174 1
  38   18   19 1
  39   18  175 1
  40   18  176 1
  41   19   20 ar
  42   19   25 ar
  43   20   21 ar
  44   20  177 1
  45   21   22 ar
  46   21  178 1
  47   22   23 1
  48   22   24 ar
  49   23  179 1
  50   24   25 ar
  51   24  180 1
  52   25  181 1
  53   26   27 2
  54   26   29 1
  55   26   39 am
  56   28   29 1
  57   28  182 1
  58   29   30 1
  59   29  183 1
  60   30   31 1
  61   30  184 1
  62   30  185 1
  63   31   32 ar
  64   31   36 ar
  65   32   33 ar
  66   32  186 1
  67   33   34 ar
  68   33  187 1
  69   34   35 ar
  70   34  188 1
  71   35   36 ar
  72   35  189 1
  73   36  190 1
  74   37   38 2
  75   37   40 1
  76   37   50 am
  77   39   40 1
  78   39  191 1
  79   40   41 1
  80   40  192 1
  81   41   42 1
  82   41  193 1
  83   41  194 1
  84   42   43 1
  85   42  195 1
  86   42  196 1
  87   43   44 1
  88   43  197 1
  89   43  198 1
  90   44   45 1
  91   44  199 1
  92   45   46 2
  93   45   47 1
  94   46  200 1
  95   47  201 1
  96   47  202 1
  97   48   49 2
  98   48   51 1
  99   48   61 am
 100   50   51 1
 101   50  203 1
 102   51   52 1
 103   51  204 1
 104   52   53 1
 105   52  205 1
 106   52  206 1
 107   53   54 1
 108   53  207 1
 109   53  208 1
 110   54   55 1
 111   54  209 1
 112   54  210 1
 113   55   56 1
 114   55  211 1
 115   56   57 2
 116   56   58 1
 117   57  212 1
 118   58  213 1
 119   58  214 1
 120   59   60 2
 121   59   62 1
 122   59   69 am
 123   61   62 1
 124   61  215 1
 125   62   63 1
 126   62  216 1
 127   63   64 1
 128   63  217 1
 129   63  218 1
 130   64   65 1
 131   64   66 1
 132   64  219 1
 133   65  220 1
 134   65  221 1
 135   65  222 1
 136   66  223 1
 137   66  224 1
 138   66  225 1
 139   67   68 2
 140   67   70 1
 141   67   79 am
 142   69   70 1
 143   69  226 1
 144   70   71 1
 145   70  227 1
 146   71   72 1
 147   71  228 1
 148   71  229 1
 149   72   73 2
 150   72   76 1
 151   73   74 1
 152   73  230 1
 153   74   75 1
 154   74  231 1
 155   75   76 2
 156   75  232 1
 157   77   78 2
 158   77   80 1
 159   77   85 am
 160   79   80 1
 161   79  233 1
 162   80   81 1
 163   80  234 1
 164   81   82 1
 165   81  235 1
 166   81  236 1
 167   82  237 1
 168   83   84 2
 169   83   86 1
 170   83   92 am
 171   85   86 1
 172   85  238 1
 173   86   87 1
 174   86  239 1
 175   87   88 1
 176   87   89 1
 177   87  240 1
 178   88  241 1
 179   88  242 1
 180   88  243 1
 181   89  244 1
 182   90   91 2
 183   90   93 1
 184   90  103 am
 185   92   93 1
 186   92  245 1
 187   93   94 1
 188   93  246 1
 189   94   95 1
 190   94  247 1
 191   94  248 1
 192   95   96 1
 193   95  249 1
 194   95  250 1
 195   96   97 1
 196   96  251 1
 197   96  252 1
 198   97   98 1
 199   97  253 1
 200   98   99 2
 201   98  100 1
 202   99  254 1
 203  100  255 1
 204  100  256 1
 205  101  102 2
 206  101  104 1
 207  101  111 am
 208  103  104 1
 209  103  257 1
 210  104  105 1
 211  104  258 1
 212  105  106 1
 213  105  259 1
 214  105  260 1
 215  106  107 2
 216  106  108 am
 217  108  261 1
 218  108  262 1
 219  109  110 2
 220  109  112 1
 221  109  123 am
 222  111  112 1
 223  111  263 1
 224  112  113 1
 225  112  264 1
 226  113  114 1
 227  113  265 1
 228  113  266 1
 229  114  115 ar
 230  114  120 ar
 231  115  116 ar
 232  115  267 1
 233  116  117 ar
 234  116  268 1
 235  117  118 1
 236  117  119 ar
 237  118  269 1
 238  119  120 ar
 239  119  270 1
 240  120  271 1
 241  121  122 2
 242  121  124 1
 243  121  131 am
 244  123  124 1
 245  123  272 1
 246  124  125 1
 247  124  273 1
 248  125  126 1
 249  125  128 1
 250  125  274 1
 251  126  127 1
 252  126  275 1
 253  126  276 1
 254  127  277 1
 255  127  278 1
 256  127  279 1
 257  128  280 1
 258  128  281 1
 259  128  282 1
 260  129  130 2
 261  129  132 1
 262  129  139 1
 263  131  132 1
 264  131  283 1
 265  132  133 1
 266  132  284 1
 267  133  134 1
 268  133  285 1
 269  133  286 1
 270  134  135 2
 271  134  138 1
 272  135  136 1
 273  135  287 1
 274  136  137 1
 275  136  288 1
 276  137  138 2
 277  137  289 1
 278  139  290 1
 279  140  141 2
 280  140  156 1
 281  142  143 1
 282  142  291 1
 283  142  292 1
 284  142  293 1
 285  143  144 1
 286  143  294 1
 287  143  295 1
 288  144  145 1
 289  144  296 1
 290  144  297 1
 291  145  146 1
 292  145  298 1
 293  145  299 1
 294  146  147 1
 295  146  300 1
 296  146  301 1
 297  147  148 1
 298  147  302 1
 299  147  303 1
 300  148  149 1
 301  148  304 1
 302  148  305 1
 303  149  150 1
 304  149  306 1
 305  149  307 1
 306  150  151 1
 307  150  308 1
 308  150  309 1
 309  151  152 1
 310  151  310 1
 311  151  311 1
 312  152  153 1
 313  152  312 1
 314  152  313 1
 315  153  154 1
 316  153  314 1
 317  153  315 1
 318  154  155 1
 319  154  316 1
 320  154  317 1
 321  155  156 1
 322  155  318 1
 323  155  319 1
 324  156  320 1
 325  156  321 1

#	End of record

