#	Name: ASD02038668
#	Creating user name:	WinNT
#	Creation time:	15. 06. 2019 20:17

#	Modifying user name:	WinNT
#	Modification time:	15. 06. 2019 20:17

#	Program:	/corina/corina34_cracker 3.40 0067  02.08.2006

@<TRIPOS>MOLECULE
ASD02038668
  42   43    0    0    0
SMALL
NO_CHARGES


@<TRIPOS>ATOM
   1 C1             0.2589     1.4209     0.0037 C.ar    
   2 C2             0.1853     0.0415    -0.0137 C.ar    
   3 C3             1.3426    -0.7142     0.0234 C.ar    
   4 C4             1.2594    -2.2188     0.0038 C.3     
   5 C5             1.2876    -2.7123    -1.4442 C.3     
   6 C6             1.2045    -4.2169    -1.4638 C.2     
   7 N7             1.2129    -4.8770    -2.6388 N.am    
   8 N8             1.1356    -6.2757    -2.6570 N.am    
   9 C9             1.1440    -6.9359    -3.8320 C.2     
  10 C10            0.4713    -7.9944    -6.4802 C.ar    
  11 C11            0.5745    -8.6708    -7.6800 C.ar    
  12 C12            1.5308    -8.2973    -8.6065 C.ar    
  13 C13            2.3869    -7.2459    -8.3356 C.ar    
  14 C14            2.2892    -6.5647    -7.1369 C.ar    
  15 C15            1.3291    -6.9380    -6.2041 C.ar    
  16 C16            1.4953     2.0478     0.0584 C.ar    
  17 C17            2.6549     1.2873     0.0955 C.ar    
  18 C18            2.5760    -0.0918     0.0779 C.ar    
  19 O19            1.5703     3.4046     0.0752 O.3     
  20 N20            1.2268    -6.2504    -4.9895 N.am    
  21 S21            1.0495    -8.6451    -3.8543 S.2     
  22 Cl22           3.3650    -5.2454    -6.7966 Cl      
  23 C23            1.6404    -9.0382    -9.9142 C.3     
  24 O24            1.1299    -4.8337    -0.4222 O.2     
  25 H25           -0.6452     2.0108    -0.0297 H       
  26 H26           -0.7770    -0.4470    -0.0559 H       
  27 H27            2.1072    -2.6366     0.5466 H       
  28 H28            0.3313    -2.5376     0.4783 H       
  29 H29            0.4398    -2.2944    -1.9870 H       
  30 H30            2.2157    -2.3935    -1.9187 H       
  31 H31            1.2725    -4.3837    -3.4718 H       
  32 H32            1.0760    -6.7691    -1.8239 H       
  33 H33           -0.2788    -8.2842    -5.7592 H       
  34 H34           -0.0923    -9.4927    -7.8947 H       
  35 H35            3.1327    -6.9566    -9.0613 H       
  36 H36            3.6187     1.7729     0.1378 H       
  37 H37            3.4785    -0.6843     0.1068 H       
  38 H38            1.5575     3.7883     0.9627 H       
  39 H39            1.2154    -5.2805    -4.9806 H       
  40 H40            0.9983    -8.5630   -10.6559 H       
  41 H41            2.6739    -9.0145   -10.2598 H       
  42 H42            1.3282   -10.0729    -9.7728 H       
@<TRIPOS>BOND
   1    1    2 ar
   2    1   16 ar
   3    1   25 1
   4    2    3 ar
   5    2   26 1
   6    3    4 1
   7    3   18 ar
   8    4    5 1
   9    4   27 1
  10    4   28 1
  11    5    6 1
  12    5   29 1
  13    5   30 1
  14    6    7 am
  15    6   24 2
  16    7    8 1
  17    7   31 1
  18    8    9 am
  19    8   32 1
  20    9   20 am
  21    9   21 2
  22   10   11 ar
  23   10   15 ar
  24   10   33 1
  25   11   12 ar
  26   11   34 1
  27   12   13 ar
  28   12   23 1
  29   13   14 ar
  30   13   35 1
  31   14   15 ar
  32   14   22 1
  33   15   20 1
  34   16   17 ar
  35   16   19 1
  36   17   18 ar
  37   17   36 1
  38   18   37 1
  39   19   38 1
  40   20   39 1
  41   23   40 1
  42   23   41 1
  43   23   42 1

#	End of record

