#	Name: ASD00731021
#	Creating user name:	WinNT
#	Creation time:	15. 06. 2019 18:37

#	Modifying user name:	WinNT
#	Modification time:	15. 06. 2019 18:37

#	Program:	/corina/corina34_cracker 3.40 0067  02.08.2006

@<TRIPOS>MOLECULE
ASD00731021
 263  265    0    0    0
SMALL
NO_CHARGES


@<TRIPOS>ATOM
   1 C1            -2.0432    -1.8349     1.5162 C.2     
   2 O2            -2.3755    -2.9979     1.4274 O.2     
   3 N3             0.1968    -2.7073     1.8482 N.am    
   4 C4            -0.5987    -1.4804     1.7583 C.3     
   5 C5            -5.0565    -0.0537     0.4625 C.2     
   6 O6            -4.4360     0.9546     0.1993 O.2     
   7 N7            -2.9650    -0.8594     1.3927 N.am    
   8 C8            -4.3683    -1.2039     1.1513 C.3     
   9 C9            -5.0607    -1.4873     2.4858 C.3     
  10 O10           -5.0941    -0.2921     3.2684 O.3     
  11 C11           -8.5091     0.9184    -0.2429 C.2     
  12 O12           -8.9847    -0.0525     0.3067 O.2     
  13 N13           -6.3617    -0.1454     0.1391 N.am    
  14 C14           -7.0308     0.9728    -0.5304 C.3     
  15 C15           -6.8008     0.8748    -2.0398 C.3     
  16 C16           -5.3009     0.9476    -2.3329 C.3     
  17 O17           -7.3205    -0.3662    -2.5213 O.3     
  18 C18          -11.4323     2.2442    -1.7223 C.2     
  19 O19          -10.7671     2.5850    -2.6774 O.2     
  20 N20           -9.3028     1.9487    -0.5967 N.am    
  21 C21          -10.7552     1.8429    -0.4371 C.3     
  22 C22          -11.2131     2.7690     0.6914 C.3     
  23 C23          -10.6001     2.3173     1.9918 C.2     
  24 O24           -9.8392     1.3789     2.0073 O.2     
  25 O25          -10.8994     2.9575     3.1330 O.3     
  26 C26          -14.8312     3.0980    -2.7621 C.2     
  27 O27          -15.2364     3.1151    -1.6191 O.2     
  28 N28          -12.7770     2.2244    -1.8102 N.am    
  29 C29          -13.4352     2.6145    -3.0595 C.3     
  30 C30          -13.5025     1.4086    -3.9987 C.3     
  31 C31          -12.0852     0.9950    -4.4000 C.3     
  32 C32          -12.1524    -0.2110    -5.3392 C.3     
  33 N33          -10.7953    -0.6070    -5.7234 N.pl3   
  34 C34          -10.6039    -1.6744    -6.5685 C.2     
  35 N35          -11.6300    -2.3340    -7.0278 N.2     
  36 N36           -9.3304    -2.0460    -6.9290 N.pl3   
  37 C37          -17.8285     3.9716    -4.6837 C.2     
  38 O38          -17.3338     3.8404    -5.7832 O.2     
  39 N39          -15.6294     3.5115    -3.7663 N.am    
  40 C40          -16.9446     4.0840    -3.4683 C.3     
  41 C41          -16.7852     5.5574    -3.0880 C.3     
  42 C42          -18.1393     6.1211    -2.6528 C.3     
  43 C43          -18.5787     5.4458    -1.3521 C.3     
  44 C44          -18.0153     7.6294    -2.4277 C.3     
  45 C45          -21.3589     4.4692    -5.4910 C.2     
  46 O46          -21.5661     5.0769    -4.4620 O.2     
  47 N47          -19.1687     4.0169    -4.5488 N.am    
  48 C48          -20.0300     3.7940    -5.7127 C.3     
  49 C49          -20.2472     2.2919    -5.9061 C.3     
  50 C50          -18.9152     1.6246    -6.2545 C.3     
  51 C51          -19.1324     0.1225    -6.4479 C.3     
  52 N52          -17.8570    -0.5164    -6.7816 N.pl3   
  53 C53          -17.8043    -1.8724    -7.0019 C.2     
  54 N54          -18.8891    -2.5896    -6.9140 N.2     
  55 N55          -16.6074    -2.4719    -7.3150 N.pl3   
  56 C56          -24.6658     4.3663    -7.0454 C.2     
  57 O57          -24.3692     3.4207    -7.7446 O.2     
  58 N58          -22.3170     4.3979    -6.4361 N.am    
  59 C59          -23.6089     5.0543    -6.2205 C.3     
  60 C60          -23.5109     6.5227    -6.6391 C.3     
  61 C61          -22.5285     7.2507    -5.7195 C.3     
  62 C62          -22.4305     8.7191    -6.1381 C.3     
  63 N63          -21.4899     9.4162    -5.2575 N.pl3   
  64 C64          -21.2379    10.7550    -5.4428 C.2     
  65 N65          -21.8360    11.4040    -6.4020 N.2     
  66 N66          -20.3551    11.4091    -4.6165 N.pl3   
  67 C67          -28.0921     5.0965    -8.0896 C.2     
  68 O68          -28.0400     6.2304    -7.6624 O.2     
  69 N69          -25.9407     4.8018    -7.0063 N.am    
  70 C70          -26.9682     4.1329    -7.8082 C.3     
  71 C71          -27.5109     2.9270    -7.0387 C.3     
  72 C72          -26.4149     1.9075    -6.8644 C.2     
  73 C73          -26.1774     0.8476    -7.6532 C.2     
  74 N74          -25.0991     0.1485    -7.1833 N.pl3   
  75 C75          -24.6037     0.7570    -6.0518 C.ar    
  76 C76          -23.5448     0.4713    -5.1966 C.ar    
  77 C77          -23.2943     1.2932    -4.1193 C.ar    
  78 C78          -24.0887     2.4052    -3.8776 C.ar    
  79 C79          -25.1347     2.7043    -4.7048 C.ar    
  80 C80          -25.4026     1.8888    -5.8057 C.ar    
  81 C81          -31.5181     4.8650    -9.3435 C.2     
  82 O82          -31.5114     3.6530    -9.3002 O.2     
  83 N83          -29.1552     4.6983    -8.8160 N.am    
  84 C84          -30.2478     5.6351    -9.0896 C.3     
  85 C85          -29.9044     6.4732   -10.3227 C.3     
  86 C86          -28.6865     7.3488   -10.0212 C.3     
  87 S87          -28.2792     8.3424   -11.4832 S.3     
  88 C88          -26.8356     9.2965   -10.9390 C.3     
  89 C89          -34.8254     5.6037   -10.7144 C.2     
  90 O90          -34.4890     6.7109   -11.0776 O.2     
  91 N91          -32.6616     5.5232    -9.6186 N.am    
  92 C92          -33.8964     4.7746    -9.8655 C.3     
  93 C93          -34.5740     4.4543    -8.5316 C.3     
  94 C94          -33.6969     3.5246    -7.7331 C.ar    
  95 C95          -32.7526     4.0404    -6.8654 C.ar    
  96 C96          -31.9481     3.1876    -6.1330 C.ar    
  97 C97          -32.0882     1.8190    -6.2680 C.ar    
  98 C98          -33.0332     1.3032    -7.1351 C.ar    
  99 C99          -33.8407     2.1560    -7.8643 C.ar    
 100 C100         -37.7302     6.8453   -11.0119 C.2     
 101 O101         -37.5614     6.8323    -9.8156 O.2     
 102 N102         -36.0299     5.1148   -11.0702 N.am    
 103 C103         -36.9329     5.9208   -11.8955 C.3     
 104 C104         -37.8851     4.9986   -12.6595 C.3     
 105 C105         -38.7439     5.8303   -13.6144 C.3     
 106 C106         -39.6072     4.8982   -14.4670 C.3     
 107 C107         -38.7899     4.2648   -11.6676 C.3     
 108 O108         -38.6278     7.6832   -11.5540 O.3     
 109 C109           1.5254    -2.6348     2.0632 C.2     
 110 O110           2.0623    -1.5539     2.1822 O.2     
 111 C111          18.4253   -10.3468     4.5339 C.3     
 112 C112          17.5945    -9.0654     4.4400 C.3     
 113 C113          16.1279    -9.4254     4.1942 C.3     
 114 C114          15.2972    -8.1440     4.1003 C.3     
 115 C115          13.8306    -8.5040     3.8544 C.3     
 116 C116          12.9998    -7.2226     3.7605 C.3     
 117 C117          11.5332    -7.5826     3.5147 C.3     
 118 C118          10.7024    -6.3012     3.4208 C.3     
 119 C119           9.2358    -6.6611     3.1749 C.3     
 120 C120           8.4050    -5.3798     3.0810 C.3     
 121 C121           6.9384    -5.7397     2.8352 C.3     
 122 C122           6.1076    -4.4584     2.7413 C.3     
 123 C123           4.6410    -4.8183     2.4954 C.3     
 124 C124           3.8102    -3.5370     2.4015 C.3     
 125 C125           2.3437    -3.8969     2.1557 C.3     
 126 H126          -0.2326    -3.5718     1.7530 H       
 127 H127          -0.2315    -0.8689     0.9341 H       
 128 H128          -0.5129    -0.9226     2.6908 H       
 129 H129          -2.6992     0.0708     1.4636 H       
 130 H130          -4.4212    -2.0902     0.5190 H       
 131 H131          -6.0791    -1.8294     2.3013 H       
 132 H132          -4.5102    -2.2588     3.0241 H       
 133 H133          -5.5200    -0.3980     4.1301 H       
 134 H134          -6.8580    -0.9518     0.3497 H       
 135 H135          -6.6232     1.9138    -0.1611 H       
 136 H136          -7.3091     1.6997    -2.5391 H       
 137 H137          -4.8072     0.0670    -1.9220 H       
 138 H138          -5.1427     0.9830    -3.4108 H       
 139 H139          -4.8843     1.8447    -1.8749 H       
 140 H140          -8.2685    -0.4812    -2.3690 H       
 141 H141          -8.9123     2.7602    -0.9569 H       
 142 H142         -11.0199     0.8141    -0.1929 H       
 143 H143         -10.8961     3.7893     0.4753 H       
 144 H144         -12.2997     2.7353     0.7708 H       
 145 H145         -10.4817     2.6314     3.9419 H       
 146 H146         -13.3090     1.9518    -1.0463 H       
 147 H147         -12.8674     3.4142    -3.5351 H       
 148 H148         -13.9928     0.5786    -3.4899 H       
 149 H149         -14.0698     1.6740    -4.8908 H       
 150 H150         -11.5948     1.8249    -4.9088 H       
 151 H151         -11.5178     0.7295    -3.5079 H       
 152 H152         -12.6427    -1.0409    -4.8303 H       
 153 H153         -12.7197     0.0545    -6.2312 H       
 154 H154         -10.0317    -0.1161    -5.3815 H       
 155 H155         -11.4950    -3.0871    -7.6241 H       
 156 H156          -8.5668    -1.5551    -6.5871 H       
 157 H157          -9.1954    -2.7991    -7.5253 H       
 158 H158         -15.3331     3.4301    -4.6863 H       
 159 H159         -17.3974     3.5415    -2.6383 H       
 160 H160         -16.0739     5.6458    -2.2668 H       
 161 H161         -16.4183     6.1170    -3.9484 H       
 162 H162         -18.8794     5.9294    -3.4297 H       
 163 H163         -19.5760     5.7926    -1.0815 H       
 164 H164         -18.5952     4.3649    -1.4915 H       
 165 H165         -17.8778     5.6989    -0.5566 H       
 166 H166         -17.7023     8.1105    -3.3544 H       
 167 H167         -18.9800     8.0310    -2.1176 H       
 168 H168         -17.2752     7.8212    -1.6508 H       
 169 H169         -19.5630     4.1972    -3.6811 H       
 170 H170         -19.5549     4.2098    -6.6012 H       
 171 H171         -20.6401     1.8601    -4.9856 H       
 172 H172         -20.9581     2.1289    -6.7162 H       
 173 H173         -18.5223     2.0564    -7.1750 H       
 174 H174         -18.2043     1.7876    -5.4444 H       
 175 H175         -19.5253    -0.3093    -5.5274 H       
 176 H176         -19.8433    -0.0404    -7.2580 H       
 177 H177         -17.0497     0.0174    -6.8470 H       
 178 H178         -18.8519    -3.5463    -7.0694 H       
 179 H179         -15.8000    -1.9382    -7.3804 H       
 180 H180         -16.5702    -3.4287    -7.4704 H       
 181 H181         -22.1513     3.9118    -7.2590 H       
 182 H182         -23.8753     4.9943    -5.1653 H       
 183 H183         -23.1585     6.5843    -7.6688 H       
 184 H184         -24.4934     6.9886    -6.5629 H       
 185 H185         -22.8809     7.1892    -4.6898 H       
 186 H186         -21.5460     6.7848    -5.7957 H       
 187 H187         -22.0782     8.7806    -7.1677 H       
 188 H188         -23.4130     9.1850    -6.0618 H       
 189 H189         -21.0448     8.9332    -4.5437 H       
 190 H190         -21.6582    12.3486    -6.5328 H       
 191 H191         -19.9100    10.9261    -3.9027 H       
 192 H192         -20.1774    12.3537    -4.7472 H       
 193 H193         -26.1779     5.5581    -6.4471 H       
 194 H194         -26.5331     3.7973    -8.7496 H       
 195 H195         -27.8655     3.2502    -6.0599 H       
 196 H196         -28.3358     2.4821    -7.5952 H       
 197 H197         -26.7526     0.5853    -8.5288 H       
 198 H198         -24.7376    -0.6559    -7.5871 H       
 199 H199         -22.9211    -0.3919    -5.3760 H       
 200 H200         -22.4717     1.0695    -3.4562 H       
 201 H201         -23.8789     3.0392    -3.0288 H       
 202 H202         -25.7488     3.5711    -4.5103 H       
 203 H203         -29.1969     3.7915    -9.1577 H       
 204 H204         -30.3867     6.2921    -8.2310 H       
 205 H205         -29.6786     5.8124   -11.1597 H       
 206 H206         -30.7532     7.1072   -10.5790 H       
 207 H207         -28.9122     8.0095    -9.1842 H       
 208 H208         -27.8377     6.7147    -9.7649 H       
 209 H209         -27.1077     9.9085   -10.0791 H       
 210 H210         -26.0331     8.6137   -10.6597 H       
 211 H211         -26.4985     9.9405   -11.7512 H       
 212 H212         -32.6670     6.4926    -9.6533 H       
 213 H213         -33.6606     3.8460   -10.3854 H       
 214 H214         -34.7295     5.3769    -7.9723 H       
 215 H215         -35.5355     3.9761    -8.7181 H       
 216 H216         -32.6430     5.1096    -6.7598 H       
 217 H217         -31.2098     3.5905    -5.4555 H       
 218 H218         -31.4592     1.1527    -5.6964 H       
 219 H219         -33.1425     0.2340    -7.2409 H       
 220 H220         -34.5815     1.7531    -8.5390 H       
 221 H221         -36.2989     4.2292   -10.7798 H       
 222 H222         -36.3498     6.5087   -12.6042 H       
 223 H223         -37.3070     4.2718   -13.2303 H       
 224 H224         -39.3871     6.4956   -13.0385 H       
 225 H225         -38.0975     6.4214   -14.2631 H       
 226 H226         -40.2536     4.3071   -13.8182 H       
 227 H227         -40.2190     5.4907   -15.1472 H       
 228 H228         -38.9640     4.2328   -15.0429 H       
 229 H229         -39.3679     4.9916   -11.0969 H       
 230 H230         -39.4682     3.6078   -12.2120 H       
 231 H231         -38.1781     3.6723   -10.9874 H       
 232 H232         -39.1151     8.2571   -10.9471 H       
 233 H233          19.4702   -10.0904     4.7091 H       
 234 H234          18.0582   -10.9583     5.3582 H       
 235 H235          18.3395   -10.9046     3.6014 H       
 236 H236          17.6804    -8.5076     5.3725 H       
 237 H237          17.9617    -8.4540     3.6158 H       
 238 H238          16.0421    -9.9832     3.2617 H       
 239 H239          15.7608   -10.0369     5.0184 H       
 240 H240          15.3830    -7.5862     5.0328 H       
 241 H241          15.6643    -7.5326     3.2760 H       
 242 H242          13.7447    -9.0618     2.9219 H       
 243 H243          13.4634    -9.1155     4.6787 H       
 244 H244          13.0856    -6.6648     4.6930 H       
 245 H245          13.3669    -6.6111     2.9363 H       
 246 H246          11.4474    -8.1404     2.5822 H       
 247 H247          11.1660    -8.1940     4.3389 H       
 248 H248          10.7882    -5.7434     4.3533 H       
 249 H249          11.0695    -5.6897     2.5965 H       
 250 H250           9.1500    -7.2190     2.2424 H       
 251 H251           8.8687    -7.2726     3.9992 H       
 252 H252           8.4908    -4.8220     4.0135 H       
 253 H253           8.7722    -4.7683     2.2568 H       
 254 H254           6.8526    -6.2975     1.9027 H       
 255 H255           6.5713    -6.3512     3.6594 H       
 256 H256           6.1934    -3.9006     3.6738 H       
 257 H257           6.4748    -3.8469     1.9170 H       
 258 H258           4.5552    -5.3761     1.5629 H       
 259 H259           4.2739    -5.4298     3.3197 H       
 260 H260           3.8961    -2.9792     3.3340 H       
 261 H261           4.1774    -2.9255     1.5773 H       
 262 H262           1.9765    -4.5084     2.9799 H       
 263 H263           2.2578    -4.4547     1.2232 H       
@<TRIPOS>BOND
   1    1    2 2
   2    1    4 1
   3    1    7 am
   4    3    4 1
   5    3  109 am
   6    3  126 1
   7    4  127 1
   8    4  128 1
   9    5    6 2
  10    5    8 1
  11    5   13 am
  12    7    8 1
  13    7  129 1
  14    8    9 1
  15    8  130 1
  16    9   10 1
  17    9  131 1
  18    9  132 1
  19   10  133 1
  20   11   12 2
  21   11   14 1
  22   11   20 am
  23   13   14 1
  24   13  134 1
  25   14   15 1
  26   14  135 1
  27   15   16 1
  28   15   17 1
  29   15  136 1
  30   16  137 1
  31   16  138 1
  32   16  139 1
  33   17  140 1
  34   18   19 2
  35   18   21 1
  36   18   28 am
  37   20   21 1
  38   20  141 1
  39   21   22 1
  40   21  142 1
  41   22   23 1
  42   22  143 1
  43   22  144 1
  44   23   24 2
  45   23   25 1
  46   25  145 1
  47   26   27 2
  48   26   29 1
  49   26   39 am
  50   28   29 1
  51   28  146 1
  52   29   30 1
  53   29  147 1
  54   30   31 1
  55   30  148 1
  56   30  149 1
  57   31   32 1
  58   31  150 1
  59   31  151 1
  60   32   33 1
  61   32  152 1
  62   32  153 1
  63   33   34 1
  64   33  154 1
  65   34   35 2
  66   34   36 1
  67   35  155 1
  68   36  156 1
  69   36  157 1
  70   37   38 2
  71   37   40 1
  72   37   47 am
  73   39   40 1
  74   39  158 1
  75   40   41 1
  76   40  159 1
  77   41   42 1
  78   41  160 1
  79   41  161 1
  80   42   43 1
  81   42   44 1
  82   42  162 1
  83   43  163 1
  84   43  164 1
  85   43  165 1
  86   44  166 1
  87   44  167 1
  88   44  168 1
  89   45   46 2
  90   45   48 1
  91   45   58 am
  92   47   48 1
  93   47  169 1
  94   48   49 1
  95   48  170 1
  96   49   50 1
  97   49  171 1
  98   49  172 1
  99   50   51 1
 100   50  173 1
 101   50  174 1
 102   51   52 1
 103   51  175 1
 104   51  176 1
 105   52   53 1
 106   52  177 1
 107   53   54 2
 108   53   55 1
 109   54  178 1
 110   55  179 1
 111   55  180 1
 112   56   57 2
 113   56   59 1
 114   56   69 am
 115   58   59 1
 116   58  181 1
 117   59   60 1
 118   59  182 1
 119   60   61 1
 120   60  183 1
 121   60  184 1
 122   61   62 1
 123   61  185 1
 124   61  186 1
 125   62   63 1
 126   62  187 1
 127   62  188 1
 128   63   64 1
 129   63  189 1
 130   64   65 2
 131   64   66 1
 132   65  190 1
 133   66  191 1
 134   66  192 1
 135   67   68 2
 136   67   70 1
 137   67   83 am
 138   69   70 1
 139   69  193 1
 140   70   71 1
 141   70  194 1
 142   71   72 1
 143   71  195 1
 144   71  196 1
 145   72   73 2
 146   72   80 1
 147   73   74 1
 148   73  197 1
 149   74   75 1
 150   74  198 1
 151   75   76 ar
 152   75   80 ar
 153   76   77 ar
 154   76  199 1
 155   77   78 ar
 156   77  200 1
 157   78   79 ar
 158   78  201 1
 159   79   80 ar
 160   79  202 1
 161   81   82 2
 162   81   84 1
 163   81   91 am
 164   83   84 1
 165   83  203 1
 166   84   85 1
 167   84  204 1
 168   85   86 1
 169   85  205 1
 170   85  206 1
 171   86   87 1
 172   86  207 1
 173   86  208 1
 174   87   88 1
 175   88  209 1
 176   88  210 1
 177   88  211 1
 178   89   90 2
 179   89   92 1
 180   89  102 am
 181   91   92 1
 182   91  212 1
 183   92   93 1
 184   92  213 1
 185   93   94 1
 186   93  214 1
 187   93  215 1
 188   94   95 ar
 189   94   99 ar
 190   95   96 ar
 191   95  216 1
 192   96   97 ar
 193   96  217 1
 194   97   98 ar
 195   97  218 1
 196   98   99 ar
 197   98  219 1
 198   99  220 1
 199  100  101 2
 200  100  103 1
 201  100  108 1
 202  102  103 1
 203  102  221 1
 204  103  104 1
 205  103  222 1
 206  104  105 1
 207  104  107 1
 208  104  223 1
 209  105  106 1
 210  105  224 1
 211  105  225 1
 212  106  226 1
 213  106  227 1
 214  106  228 1
 215  107  229 1
 216  107  230 1
 217  107  231 1
 218  108  232 1
 219  109  110 2
 220  109  125 1
 221  111  112 1
 222  111  233 1
 223  111  234 1
 224  111  235 1
 225  112  113 1
 226  112  236 1
 227  112  237 1
 228  113  114 1
 229  113  238 1
 230  113  239 1
 231  114  115 1
 232  114  240 1
 233  114  241 1
 234  115  116 1
 235  115  242 1
 236  115  243 1
 237  116  117 1
 238  116  244 1
 239  116  245 1
 240  117  118 1
 241  117  246 1
 242  117  247 1
 243  118  119 1
 244  118  248 1
 245  118  249 1
 246  119  120 1
 247  119  250 1
 248  119  251 1
 249  120  121 1
 250  120  252 1
 251  120  253 1
 252  121  122 1
 253  121  254 1
 254  121  255 1
 255  122  123 1
 256  122  256 1
 257  122  257 1
 258  123  124 1
 259  123  258 1
 260  123  259 1
 261  124  125 1
 262  124  260 1
 263  124  261 1
 264  125  262 1
 265  125  263 1

#	End of record

