#	Name: ASD01410948
#	Creating user name:	WinNT
#	Creation time:	15. 06. 2019 19:19

#	Modifying user name:	WinNT
#	Modification time:	15. 06. 2019 19:19

#	Program:	/corina/corina34_cracker 3.40 0067  02.08.2006

@<TRIPOS>MOLECULE
ASD01410948
  59   61    0    0    0
SMALL
NO_CHARGES


@<TRIPOS>ATOM
   1 C1             0.9797     0.9462     1.2754 C.ar    
   2 C2             0.0954    -0.9716     0.1198 C.ar    
   3 C3            -1.1888    -0.6176     0.5073 C.ar    
   4 C4            -1.3889     0.5261     1.2968 C.ar    
   5 C5            -0.2926     1.3081     1.6730 C.ar    
   6 O6             2.0469     1.7037     1.6459 O.3     
   7 C7             2.5448     2.5867     0.7444 C.ar    
   8 N8            -2.2753    -1.4003     0.1231 N.am    
   9 C9            -2.6150    -2.4842     0.8484 C.2     
  10 C10           -1.8503    -2.8288     2.0630 C.ar    
  11 O11           -3.5514    -3.1782     0.5023 O.2     
  12 C12           -0.9299    -1.9217     2.5938 C.ar    
  13 C13           -1.3277    -4.3775     3.8289 C.ar    
  14 C14           -0.4145    -3.4751     4.3438 C.ar    
  15 C15           -0.2193    -2.2490     3.7282 C.ar    
  16 Br16           0.5663    -3.9134     5.9000 Br      
  17 N17            1.9241     2.7645    -0.4104 N.ar    
  18 C18           -3.0487    -1.0451    -1.0694 C.3     
  19 C19           -2.5592     0.2987    -1.6131 C.3     
  20 C20            3.6984     3.2997     1.0448 C.ar    
  21 C21            4.1961     4.1976     0.1164 C.ar    
  22 C22            3.5188     4.3509    -1.0853 C.ar    
  23 C23            2.3742     3.6130    -1.3147 C.ar    
  24 C24           -2.8642    -2.1251    -2.1373 C.3     
  25 O25           -3.4636    -3.3432    -1.6913 O.3     
  26 C26           -3.3468    -4.4227    -2.6204 C.3     
  27 C27            1.1738    -0.1950     0.5011 C.ar    
  28 F28            2.4219    -0.5446     0.1202 F       
  29 O29           -2.9094     1.3389    -0.6981 O.3     
  30 C30           -2.4958     2.6421    -1.1136 C.3     
  31 C31           -2.0478    -4.0628     2.6913 C.ar    
  32 F32           -2.9397    -4.9442     2.1884 F       
  33 C33           -2.7485     0.9096     1.7123 C.2     
  34 O34           -3.7020     0.2428     1.3612 O.2     
  35 O35           -2.9355     2.0000     2.4820 O.3     
  36 C36            4.3984     3.0988     2.3641 C.3     
  37 F37            5.5255     3.9254     2.4246 F       
  38 F38            3.5262     3.4225     3.4089 F       
  39 F39            4.7935     1.7621     2.4836 F       
  40 H40            0.2522    -1.8510    -0.4871 H       
  41 H41           -0.4404     2.1934     2.2737 H       
  42 H42           -0.7753    -0.9657     2.1157 H       
  43 H43           -1.4749    -5.3314     4.3134 H       
  44 H44            0.4922    -1.5478     4.1387 H       
  45 H45           -4.1042    -0.9687    -0.8084 H       
  46 H46           -1.4762     0.2694    -1.7328 H       
  47 H47           -3.0263     0.4918    -2.5788 H       
  48 H48            5.0908     4.7662     0.3225 H       
  49 H49            3.8805     5.0432    -1.8312 H       
  50 H50            1.8437     3.7283    -2.2483 H       
  51 H51           -3.3396    -1.8044    -3.0643 H       
  52 H52           -1.8003    -2.2860    -2.3113 H       
  53 H53           -2.2929    -4.6313    -2.8044 H       
  54 H54           -3.8263    -5.3105    -2.2080 H       
  55 H55           -3.8322    -4.1497    -3.5574 H       
  56 H56           -2.7988     3.3751    -0.3659 H       
  57 H57           -1.4115     2.6615    -1.2228 H       
  58 H58           -2.9616     2.8838    -2.0689 H       
  59 H59           -3.8460     2.2118     2.7294 H       
@<TRIPOS>BOND
   1    1   27 ar
   2    1    6 1
   3    1    5 ar
   4    2    3 ar
   5    2   27 ar
   6    2   40 1
   7    3    4 ar
   8    3    8 1
   9    4    5 ar
  10    4   33 1
  11    5   41 1
  12    6    7 1
  13    7   20 ar
  14    7   17 ar
  15    8    9 am
  16    8   18 1
  17    9   10 1
  18    9   11 2
  19   10   12 ar
  20   10   31 ar
  21   12   15 ar
  22   12   42 1
  23   13   14 ar
  24   13   31 ar
  25   13   43 1
  26   14   15 ar
  27   14   16 1
  28   15   44 1
  29   17   23 ar
  30   18   19 1
  31   18   24 1
  32   18   45 1
  33   19   29 1
  34   19   46 1
  35   19   47 1
  36   20   21 ar
  37   20   36 1
  38   21   22 ar
  39   21   48 1
  40   22   23 ar
  41   22   49 1
  42   23   50 1
  43   24   25 1
  44   24   51 1
  45   24   52 1
  46   25   26 1
  47   26   53 1
  48   26   54 1
  49   26   55 1
  50   27   28 1
  51   29   30 1
  52   30   56 1
  53   30   57 1
  54   30   58 1
  55   31   32 1
  56   33   34 2
  57   33   35 1
  58   35   59 1
  59   36   37 1
  60   36   38 1
  61   36   39 1

#	End of record

