#	Name: ASD01028279
#	Creating user name:	WinNT
#	Creation time:	15. 06. 2019 18:56

#	Modifying user name:	WinNT
#	Modification time:	15. 06. 2019 18:56

#	Program:	/corina/corina34_cracker 3.40 0067  02.08.2006

@<TRIPOS>MOLECULE
ASD01028279
  49   52    0    0    0
SMALL
NO_CHARGES


@<TRIPOS>ATOM
   1 C1            -0.0168     1.3890     0.0097 C.ar    
   2 C2             0.0021    -0.0041     0.0020 C.ar    
   3 C3             1.2053     2.0830     0.0017 C.ar    
   4 C4             2.3813     1.3415    -0.0135 C.ar    
   5 C5             2.3090    -0.0373    -0.0202 C.ar    
   6 N6             1.1452    -0.6599    -0.0120 N.ar    
   7 O7             1.2365     3.4394     0.0083 O.3     
   8 C8             2.5244     4.0587    -0.0007 C.3     
   9 C9             2.3614     5.5568     0.0084 C.2     
  10 N10            2.2854     6.3439     1.1038 N.pl3   
  11 C11            2.1420     7.6294     0.6379 C.2     
  12 N12            2.1382     7.5595    -0.6833 N.2     
  13 N13            2.2737     6.3312    -1.0443 N.2     
  14 N14            2.3236     6.0974     2.4776 N.2     
  15 C15            2.2231     7.0883     3.3358 C.2     
  16 C16            2.0744     8.4184     2.8888 C.2     
  17 C17            2.0348     8.6897     1.5576 C.2     
  18 C18            2.2659     6.8046     4.7914 C.ar    
  19 C19            2.4119     5.4949     5.2446 C.ar    
  20 C20            2.4516     5.2368     6.5998 C.ar    
  21 C21            2.3468     6.2753     7.5076 C.ar    
  22 C22            2.2018     7.5772     7.0633 C.ar    
  23 C23            2.1661     7.8474     5.7104 C.ar    
  24 C24           -1.2592     2.1010     0.0195 C.1     
  25 C25           -2.2778     2.6847     0.0275 C.1     
  26 C26           -3.5549     3.4165     0.0375 C.3     
  27 N27           -3.2911     4.8616     0.0441 N.3     
  28 C28           -2.6548     5.2864    -1.2099 C.3     
  29 C29           -4.5241     5.6207     0.2923 C.3     
  30 H30           -0.9288    -0.5517     0.0080 H       
  31 H31            3.3402     1.8383    -0.0203 H       
  32 H32            3.2206    -0.6164    -0.0324 H       
  33 H33            3.0828     3.7486     0.8826 H       
  34 H34            3.0661     3.7575    -0.8973 H       
  35 H35            1.9924     9.2221     3.6056 H       
  36 H36            1.9212     9.7059     1.2099 H       
  37 H37            2.4934     4.6833     4.5367 H       
  38 H38            2.5643     4.2222     6.9522 H       
  39 H39            2.3780     6.0687     8.5672 H       
  40 H40            2.1201     8.3841     7.7765 H       
  41 H41            2.0529     8.8643     5.3646 H       
  42 H42           -4.1299     3.1562    -0.8512 H       
  43 H43           -4.1214     3.1465     0.9287 H       
  44 H44           -3.3126     5.0550    -2.0477 H       
  45 H45           -2.4706     6.3602    -1.1784 H       
  46 H46           -1.7090     4.7590    -1.3342 H       
  47 H47           -4.9372     5.3365     1.2600 H       
  48 H48           -4.3003     6.6875     0.2919 H       
  49 H49           -5.2496     5.4015    -0.4911 H       
@<TRIPOS>BOND
   1    1    2 ar
   2    1    3 ar
   3    1   24 1
   4    2    6 ar
   5    2   30 1
   6    3    4 ar
   7    3    7 1
   8    4    5 ar
   9    4   31 1
  10    5    6 ar
  11    5   32 1
  12    7    8 1
  13    8    9 1
  14    8   33 1
  15    8   34 1
  16    9   10 1
  17    9   13 2
  18   10   11 1
  19   10   14 1
  20   11   12 2
  21   11   17 1
  22   12   13 1
  23   14   15 2
  24   15   16 1
  25   15   18 1
  26   16   17 2
  27   16   35 1
  28   17   36 1
  29   18   19 ar
  30   18   23 ar
  31   19   20 ar
  32   19   37 1
  33   20   21 ar
  34   20   38 1
  35   21   22 ar
  36   21   39 1
  37   22   23 ar
  38   22   40 1
  39   23   41 1
  40   24   25 3
  41   25   26 1
  42   26   27 1
  43   26   42 1
  44   26   43 1
  45   27   28 1
  46   27   29 1
  47   28   44 1
  48   28   45 1
  49   28   46 1
  50   29   47 1
  51   29   48 1
  52   29   49 1

#	End of record

