#	Name: ASD08178330
#	Creating user name:	WinNT
#	Creation time:	15. 06. 2019 21:18

#	Modifying user name:	WinNT
#	Modification time:	15. 06. 2019 21:18

#	Program:	/corina/corina34_cracker 3.40 0067  02.08.2006

@<TRIPOS>MOLECULE
ASD08178330
  89   92    0    0    0
SMALL
NO_CHARGES


@<TRIPOS>ATOM
   1 N1            -0.0168     1.3902     0.0097 N.am    
   2 C2            -0.2179     0.0104     0.0232 C.ar    
   3 C3             0.8672    -0.8562    -0.0924 C.ar    
   4 N4            -1.4408    -0.4825     0.1514 N.ar    
   5 N5            -1.6682    -1.7455     0.1689 N.ar    
   6 C6            -0.7022    -2.6364     0.0605 C.ar    
   7 C7             0.6142    -2.2193    -0.0731 C.ar    
   8 C8            -1.0274    -4.1077     0.0878 C.3     
   9 C9            -1.8143    -4.4325     1.3590 C.3     
  10 C10           -2.1445    -5.9262     1.3867 C.3     
  11 C11           -2.9314    -6.2511     2.6580 C.3     
  12 C12           -3.2566    -7.7223     2.6853 C.2     
  13 N13           -2.5261    -8.6567     3.2057 N.2     
  14 N14           -2.9743    -9.8343     3.1266 N.2     
  15 C15           -4.1184   -10.0056     2.5359 C.2     
  16 S16           -4.7042    -8.4804     2.0209 S.3     
  17 N17           -4.7634   -11.2245     2.3563 N.am    
  18 C18           -4.1995   -12.3594     2.8150 C.2     
  19 C19           -4.8985   -13.6803     2.6204 C.3     
  20 O20           -3.1294   -12.3177     3.3843 O.2     
  21 C21           -4.0644   -14.7831     3.2197 C.ar    
  22 C22           -4.2445   -15.1453     4.5413 C.ar    
  23 C23           -3.4793   -16.1571     5.0912 C.ar    
  24 C24           -2.5346   -16.8066     4.3191 C.ar    
  25 C25           -2.3551   -16.4448     2.9968 C.ar    
  26 C26           -3.1231   -15.4363     2.4459 C.ar    
  27 C27           -1.0746     2.2255     0.0167 C.2     
  28 C28           -0.8590     3.7134     0.1197 C.3     
  29 O29           -2.1998     1.7796    -0.0599 O.2     
  30 C30           -0.0193     4.1930    -1.0660 C.3     
  31 C31           -2.2137     4.4302     0.1128 C.3     
  32 C32           -0.1311     4.0374     1.4289 C.3     
  33 O33           -0.9825     3.7022     2.5290 O.3     
  34 O34           -2.9354     4.0706     1.2949 O.3     
  35 C35           -3.6749   -16.5514     6.5325 C.3     
  36 N36           -4.6885   -17.6057     6.6171 N.am    
  37 C37           -5.0299   -18.1176     7.8162 C.2     
  38 O38           -5.9615   -19.0866     7.8939 O.3     
  39 O39           -4.4970   -17.7046     8.8271 O.2     
  40 C40           -6.2792   -19.5908     9.2180 C.3     
  41 C41           -6.8031   -18.4461    10.0875 C.3     
  42 C42           -7.3501   -20.6778     9.1063 C.3     
  43 C43           -5.0191   -20.1799     9.8553 C.3     
  44 C44           -2.2408     4.3807     2.5114 C.3     
  45 C45           -3.0803     3.9294     3.7083 C.3     
  46 C46           -2.0073     5.8906     2.5925 C.3     
  47 H47            0.8843     1.7489    -0.0007 H       
  48 H48            1.8736    -0.4779    -0.1943 H       
  49 H49            1.4178    -2.9352    -0.1633 H       
  50 H50           -1.6267    -4.3635    -0.7859 H       
  51 H51           -0.1026    -4.6845     0.0756 H       
  52 H52           -1.2149    -4.1767     2.2328 H       
  53 H53           -2.7391    -3.8557     1.3713 H       
  54 H54           -2.7438    -6.1821     0.5130 H       
  55 H55           -1.2197    -6.5030     1.3745 H       
  56 H56           -2.3321    -5.9952     3.5317 H       
  57 H57           -3.8562    -5.6743     2.6702 H       
  58 H58           -5.6193   -11.2579     1.9010 H       
  59 H59           -5.8711   -13.6524     3.1116 H       
  60 H60           -5.0347   -13.8658     1.5550 H       
  61 H61           -4.9826   -14.6378     5.1446 H       
  62 H62           -1.9363   -17.5964     4.7488 H       
  63 H63           -1.6167   -16.9521     2.3936 H       
  64 H64           -2.9829   -15.1538     1.4130 H       
  65 H65           -0.5406     3.9659    -1.9959 H       
  66 H66            0.1356     5.2693    -0.9898 H       
  67 H67            0.9453     3.6856    -1.0569 H       
  68 H68           -2.0558     5.5086     0.0956 H       
  69 H69           -2.7815     4.1288    -0.7674 H       
  70 H70            0.7886     3.4555     1.4887 H       
  71 H71            0.1054     5.1009     1.4614 H       
  72 H72           -2.7330   -16.9193     6.9395 H       
  73 H73           -4.0040   -15.6842     7.1049 H       
  74 H74           -5.1139   -17.9354     5.8101 H       
  75 H75           -7.7008   -18.0265     9.6334 H       
  76 H76           -7.0416   -18.8247    11.0814 H       
  77 H77           -6.0402   -17.6717    10.1670 H       
  78 H78           -6.9769   -21.4933     8.4868 H       
  79 H79           -7.5886   -21.0563    10.1002 H       
  80 H80           -8.2478   -20.2581     8.6522 H       
  81 H81           -4.2562   -19.4055     9.9348 H       
  82 H82           -5.2577   -20.5584    10.8492 H       
  83 H83           -4.6459   -20.9954     9.2358 H       
  84 H84           -2.5527     4.1664     4.6321 H       
  85 H85           -4.0397     4.4467     3.6948 H       
  86 H86           -3.2467     2.8537     3.6505 H       
  87 H87           -1.4092     6.2120     1.7398 H       
  88 H88           -2.9667     6.4078     2.5790 H       
  89 H89           -1.4797     6.1275     3.5163 H       
@<TRIPOS>BOND
   1    1    2 1
   2    1   27 am
   3    1   47 1
   4    2    3 ar
   5    2    4 ar
   6    3    7 ar
   7    3   48 1
   8    4    5 ar
   9    5    6 ar
  10    6    7 ar
  11    6    8 1
  12    7   49 1
  13    8    9 1
  14    8   50 1
  15    8   51 1
  16    9   10 1
  17    9   52 1
  18    9   53 1
  19   10   11 1
  20   10   54 1
  21   10   55 1
  22   11   12 1
  23   11   56 1
  24   11   57 1
  25   12   13 2
  26   12   16 1
  27   13   14 1
  28   14   15 2
  29   15   16 1
  30   15   17 1
  31   17   18 am
  32   17   58 1
  33   18   19 1
  34   18   20 2
  35   19   21 1
  36   19   59 1
  37   19   60 1
  38   21   22 ar
  39   21   26 ar
  40   22   23 ar
  41   22   61 1
  42   23   24 ar
  43   23   35 1
  44   24   25 ar
  45   24   62 1
  46   25   26 ar
  47   25   63 1
  48   26   64 1
  49   27   28 1
  50   27   29 2
  51   28   30 1
  52   28   31 1
  53   28   32 1
  54   30   65 1
  55   30   66 1
  56   30   67 1
  57   31   34 1
  58   31   68 1
  59   31   69 1
  60   32   33 1
  61   32   70 1
  62   32   71 1
  63   33   44 1
  64   34   44 1
  65   35   36 1
  66   35   72 1
  67   35   73 1
  68   36   37 am
  69   36   74 1
  70   37   38 1
  71   37   39 2
  72   38   40 1
  73   40   41 1
  74   40   42 1
  75   40   43 1
  76   41   75 1
  77   41   76 1
  78   41   77 1
  79   42   78 1
  80   42   79 1
  81   42   80 1
  82   43   81 1
  83   43   82 1
  84   43   83 1
  85   44   45 1
  86   44   46 1
  87   45   84 1
  88   45   85 1
  89   45   86 1
  90   46   87 1
  91   46   88 1
  92   46   89 1

#	End of record

