#	Name: ASD03330213
#	Creating user name:	WinNT
#	Creation time:	15. 06. 2019 20:36

#	Modifying user name:	WinNT
#	Modification time:	15. 06. 2019 20:36

#	Program:	/corina/corina34_cracker 3.40 0067  02.08.2006

@<TRIPOS>MOLECULE
ASD03330213
  69   71    0    0    0
SMALL
NO_CHARGES


@<TRIPOS>ATOM
   1 C1            -0.6451     0.5619     0.2907 C.3     
   2 N2            -0.5567    -0.8932     0.0949 N.am    
   3 C3             0.1362    -1.3892    -1.1096 C.3     
   4 C4             1.3841    -0.5566    -1.2731 C.2     
   5 N5             1.6438     0.5717    -0.5658 N.pl3   
   6 C6             0.7655     1.1365     0.4614 C.3     
   7 C7             2.4312    -0.7609    -2.1123 C.2     
   8 N8             3.3149     0.2435    -1.9161 N.2     
   9 C9             2.8476     1.0488    -0.9899 C.2     
  10 C10            3.5165     2.2704    -0.4905 C.ar    
  11 C11            4.5785     2.8284    -1.2026 C.ar    
  12 C12            5.1978     3.9679    -0.7318 C.ar    
  13 C13            4.7681     4.5567     0.4441 C.ar    
  14 C14            3.7156     4.0082     1.1549 C.ar    
  15 C15            3.0842     2.8722     0.6916 C.ar    
  16 C16            2.5783    -1.8757    -3.0648 C.2     
  17 O17            1.7091    -2.7222    -3.1492 O.2     
  18 O18            6.0936    -2.4260    -4.8311 O.2     
  19 C19            5.2848    -3.2979    -5.0687 C.2     
  20 C20            3.8223    -3.0654    -4.7895 C.3     
  21 N21            3.6760    -1.9572    -3.8426 N.am    
  22 C22           -2.2721    -2.2511     3.0016 C.3     
  23 O23           -1.7195    -1.2730     2.0816 O.3     
  24 C24           -1.0920    -1.7477     0.9891 C.2     
  25 C25           -1.1491    -3.1465     3.5290 C.3     
  26 C26           -2.9410    -1.5288     4.1728 C.3     
  27 C27           -3.3083    -3.1087     2.2724 C.3     
  28 O28           -1.0084    -2.9465     0.8093 O.2     
  29 C29            3.1027    -2.7193    -6.0946 C.3     
  30 C30            3.2542    -3.8773    -7.0831 C.3     
  31 C31            1.6181    -2.4818    -5.8110 C.3     
  32 C32            3.7162    -1.4528    -6.6950 C.3     
  33 N33            5.6940    -4.4748    -5.5823 N.am    
  34 C34            7.1024    -4.6700    -5.9351 C.3     
  35 H35           -1.1210     1.0176    -0.5776 H       
  36 H36           -1.2348     0.7738     1.1826 H       
  37 H37            0.4030    -2.4380    -0.9800 H       
  38 H38           -0.5059    -1.2727    -1.9827 H       
  39 H39            0.7322     2.2209     0.3559 H       
  40 H40            1.1470     0.8776     1.4491 H       
  41 H41            4.9153     2.3693    -2.1203 H       
  42 H42            6.0200     4.4009    -1.2821 H       
  43 H43            5.2566     5.4482     0.8088 H       
  44 H44            3.3850     4.4723     2.0723 H       
  45 H45            2.2624     2.4451     1.2472 H       
  46 H46            3.3858    -3.9682    -4.3624 H       
  47 H47            4.3692    -1.2820    -3.7753 H       
  48 H48           -0.4109    -2.5356     4.0485 H       
  49 H49           -1.5638    -3.8808     4.2196 H       
  50 H50           -0.6725    -3.6611     2.6946 H       
  51 H51           -3.7410    -0.8909     3.7971 H       
  52 H52           -3.3558    -2.2631     4.8634 H       
  53 H53           -2.2028    -0.9179     4.6923 H       
  54 H54           -2.8317    -3.6233     1.4380 H       
  55 H55           -3.7230    -3.8430     2.9630 H       
  56 H56           -4.1083    -2.4708     1.8967 H       
  57 H57            2.8031    -4.7758    -6.6620 H       
  58 H58            2.7549    -3.6243    -8.0184 H       
  59 H59            4.3124    -4.0568    -7.2730 H       
  60 H60            1.5102    -1.6568    -5.1068 H       
  61 H61            1.1054    -2.2352    -6.7408 H       
  62 H62            1.1810    -3.3841    -5.3833 H       
  63 H63            4.7739    -1.6220    -6.8970 H       
  64 H64            3.2036    -1.2062    -7.6247 H       
  65 H65            3.6083    -0.6278    -5.9908 H       
  66 H66            5.0559    -5.1926    -5.7185 H       
  67 H67            7.3929    -3.9384    -6.6891 H       
  68 H68            7.7207    -4.5413    -5.0467 H       
  69 H69            7.2416    -5.6756    -6.3320 H       
@<TRIPOS>BOND
   1    1    2 1
   2    1    6 1
   3    1   35 1
   4    1   36 1
   5    2    3 1
   6    2   24 am
   7    3    4 1
   8    3   37 1
   9    3   38 1
  10    4    5 1
  11    4    7 2
  12    5    6 1
  13    5    9 1
  14    6   39 1
  15    6   40 1
  16    7    8 1
  17    7   16 1
  18    8    9 2
  19    9   10 1
  20   10   11 ar
  21   10   15 ar
  22   11   12 ar
  23   11   41 1
  24   12   13 ar
  25   12   42 1
  26   13   14 ar
  27   13   43 1
  28   14   15 ar
  29   14   44 1
  30   15   45 1
  31   16   17 2
  32   16   21 am
  33   18   19 2
  34   19   33 am
  35   19   20 1
  36   20   21 1
  37   20   29 1
  38   20   46 1
  39   21   47 1
  40   22   23 1
  41   22   25 1
  42   22   26 1
  43   22   27 1
  44   23   24 1
  45   24   28 2
  46   25   48 1
  47   25   49 1
  48   25   50 1
  49   26   51 1
  50   26   52 1
  51   26   53 1
  52   27   54 1
  53   27   55 1
  54   27   56 1
  55   29   30 1
  56   29   31 1
  57   29   32 1
  58   30   57 1
  59   30   58 1
  60   30   59 1
  61   31   60 1
  62   31   61 1
  63   31   62 1
  64   32   63 1
  65   32   64 1
  66   32   65 1
  67   33   34 1
  68   33   66 1
  69   34   67 1
  70   34   68 1
  71   34   69 1

#	End of record

