#	Name: ASD01884743
#	Creating user name:	WinNT
#	Creation time:	15. 06. 2019 19:48

#	Modifying user name:	WinNT
#	Modification time:	15. 06. 2019 19:48

#	Program:	/corina/corina34_cracker 3.40 0067  02.08.2006

@<TRIPOS>MOLECULE
ASD01884743
  54   57    0    0    0
SMALL
NO_CHARGES


@<TRIPOS>ATOM
   1 C1            -2.3905     1.3995    -0.0023 C.2     
   2 C2            -2.4224     0.0073    -0.0102 C.2     
   3 C3            -1.2135    -0.6983     0.0098 C.2     
   4 C4            -0.0309    -0.0230     0.0371 C.2     
   5 N5             0.0019     1.3342     0.0448 N.am    
   6 C6            -1.1336     2.0570     0.0199 C.2     
   7 O7            -1.0821     3.2753     0.0271 O.2     
   8 C8             1.2943     2.0235     0.0749 C.3     
   9 C9            -3.6067     2.1552    -0.0222 C.1     
  10 N10           -4.5715     2.7547    -0.0380 N.1     
  11 C11            1.7736     2.2711    -1.3569 C.3     
  12 C12            3.1233     2.9910    -1.3255 C.3     
  13 C13            4.1759     2.0742    -0.6991 C.3     
  14 C14            3.5434     3.3494    -2.7524 C.3     
  15 N15           -1.2200    -2.1015     0.0024 N.pl3   
  16 C16            0.0350    -2.8622    -0.1239 C.3     
  17 C17           -0.2051    -3.9729    -1.1219 C.2     
  18 C18           -1.4299    -4.3103    -1.5806 C.2     
  19 C19           -2.7156    -3.6356    -1.1758 C.3     
  20 C20           -2.4795    -2.8507     0.1265 C.3     
  21 N21            0.7449    -4.7772    -1.6923 N.pl3   
  22 C22            0.1476    -5.6661    -2.5411 C.ar    
  23 C23           -1.2469    -5.4106    -2.5056 C.ar    
  24 C24            0.6655    -6.6770    -3.3477 C.ar    
  25 C25           -0.2373    -7.4081    -4.0996 C.ar    
  26 C26           -1.6017    -7.1595    -4.0652 C.ar    
  27 C27           -2.1433    -6.1613    -3.2730 C.ar    
  28 C28            2.1844    -4.6965    -1.4325 C.3     
  29 F29           -2.4255    -7.9131    -4.8259 F       
  30 H30           -3.3648    -0.5198    -0.0312 H       
  31 H31            0.8963    -0.5765     0.0531 H       
  32 H32            1.1855     2.9771     0.5916 H       
  33 H33            2.0231     1.4065     0.6005 H       
  34 H34            1.8824     1.3175    -1.8736 H       
  35 H35            1.0448     2.8881    -1.8825 H       
  36 H36            3.0357     3.9016    -0.7330 H       
  37 H37            4.2635     1.1635    -1.2916 H       
  38 H38            5.1374     2.5871    -0.6767 H       
  39 H39            3.8766     1.8189     0.3175 H       
  40 H40            2.7935     4.0025    -3.1987 H       
  41 H41            4.5049     3.8623    -2.7301 H       
  42 H42            3.6310     2.4387    -3.3450 H       
  43 H43            0.8299    -2.2081    -0.4821 H       
  44 H44            0.3100    -3.2856     0.8422 H       
  45 H45           -3.0330    -2.9527    -1.9638 H       
  46 H46           -3.4865    -4.3885    -1.0111 H       
  47 H47           -2.4112    -3.5430     0.9656 H       
  48 H48           -3.3028    -2.1556     0.2909 H       
  49 H49            1.7254    -6.8810    -3.3848 H       
  50 H50            0.1330    -8.1989    -4.7351 H       
  51 H51           -3.2062    -5.9710    -3.2497 H       
  52 H52            2.4393    -5.3455    -0.5947 H       
  53 H53            2.7321    -5.0157    -2.3192 H       
  54 H54            2.4528    -3.6682    -1.1903 H       
@<TRIPOS>BOND
   1    1    2 2
   2    1    9 1
   3    1    6 1
   4    2    3 1
   5    2   30 1
   6    3    4 2
   7    3   15 1
   8    4    5 1
   9    4   31 1
  10    5    8 1
  11    5    6 am
  12    6    7 2
  13    8   11 1
  14    8   32 1
  15    8   33 1
  16    9   10 3
  17   11   12 1
  18   11   34 1
  19   11   35 1
  20   12   13 1
  21   12   14 1
  22   12   36 1
  23   13   37 1
  24   13   38 1
  25   13   39 1
  26   14   40 1
  27   14   41 1
  28   14   42 1
  29   15   16 1
  30   15   20 1
  31   16   17 1
  32   16   43 1
  33   16   44 1
  34   17   18 2
  35   17   21 1
  36   18   19 1
  37   18   23 1
  38   19   20 1
  39   19   45 1
  40   19   46 1
  41   20   47 1
  42   20   48 1
  43   21   22 1
  44   21   28 1
  45   22   23 ar
  46   22   24 ar
  47   23   27 ar
  48   24   25 ar
  49   24   49 1
  50   25   26 ar
  51   25   50 1
  52   26   27 ar
  53   26   29 1
  54   27   51 1
  55   28   52 1
  56   28   53 1
  57   28   54 1

#	End of record

