#	Name: ASD05513026
#	Creating user name:	WinNT
#	Creation time:	15. 06. 2019 21:01

#	Modifying user name:	WinNT
#	Modification time:	15. 06. 2019 21:01

#	Program:	/corina/corina34_cracker 3.40 0067  02.08.2006

@<TRIPOS>MOLECULE
ASD05513026
  32   34    0    0    0
SMALL
NO_CHARGES


@<TRIPOS>ATOM
   1 C1            -0.0067     1.4279     0.3277 C.2     
   2 C2             0.0021    -0.0041     0.0020 C.2     
   3 C3             1.1836    -0.6676    -0.1155 C.2     
   4 C4             2.3846    -0.5242     0.7324 C.ar    
   5 C5             3.3416    -1.4137     0.2216 C.ar    
   6 N6             2.8100    -2.0866    -0.8742 N.am    
   7 C7             1.5466    -1.7006    -1.1217 C.2     
   8 C8             2.6814     0.2702     1.8390 C.ar    
   9 C9             3.9255     0.1784     2.4333 C.ar    
  10 C10            4.8711    -0.6989     1.9305 C.ar    
  11 C11            4.5863    -1.4904     0.8346 C.ar    
  12 O12            0.8321    -2.1155    -2.0126 O.2     
  13 O13            1.0361     2.0537     0.3465 O.2     
  14 C14           -1.2834     2.1100     0.6266 C.ar    
  15 Cl15           1.4938     1.3698     2.4670 Cl      
  16 C16           -2.4833     1.3948     0.6001 C.ar    
  17 C17           -3.6736     2.0340     0.8800 C.ar    
  18 C18           -3.6845     3.3819     1.1873 C.ar    
  19 C19           -2.4958     4.1033     1.2161 C.ar    
  20 C20           -1.2940     3.4700     0.9421 C.ar    
  21 N21           -2.5126     5.4652     1.5268 N.pl3   
  22 H22           -0.9296    -0.5303    -0.1442 H       
  23 H23            3.2891    -2.7530    -1.3912 H       
  24 H24            4.1605     0.7919     3.2905 H       
  25 H25            5.8415    -0.7654     2.4000 H       
  26 H26            5.3335    -2.1702     0.4527 H       
  27 H27           -2.4792     0.3418     0.3601 H       
  28 H28           -4.6002     1.4795     0.8587 H       
  29 H29           -4.6195     3.8764     1.4055 H       
  30 H30           -0.3698     4.0283     0.9643 H       
  31 H31           -3.3534     5.9077     1.7224 H       
  32 H32           -1.6836     5.9684     1.5468 H       
@<TRIPOS>BOND
   1    1    2 1
   2    1   13 2
   3    1   14 1
   4    2    3 2
   5    2   22 1
   6    3    4 1
   7    3    7 1
   8    4    5 ar
   9    4    8 ar
  10    5    6 1
  11    5   11 ar
  12    6    7 am
  13    6   23 1
  14    7   12 2
  15    8    9 ar
  16    8   15 1
  17    9   10 ar
  18    9   24 1
  19   10   11 ar
  20   10   25 1
  21   11   26 1
  22   14   16 ar
  23   14   20 ar
  24   16   17 ar
  25   16   27 1
  26   17   18 ar
  27   17   28 1
  28   18   19 ar
  29   18   29 1
  30   19   20 ar
  31   19   21 1
  32   20   30 1
  33   21   31 1
  34   21   32 1

#	End of record

