#	Name: ASD05430237
#	Creating user name:	WinNT
#	Creation time:	15. 06. 2019 21:00

#	Modifying user name:	WinNT
#	Modification time:	15. 06. 2019 21:00

#	Program:	/corina/corina34_cracker 3.40 0067  02.08.2006

@<TRIPOS>MOLECULE
ASD05430237
  64   72    0    0    0
SMALL
NO_CHARGES


@<TRIPOS>ATOM
   1 C1            -0.0168     1.3891     0.0097 C.ar    
   2 C2             0.0021    -0.0041     0.0020 C.ar    
   3 C3             1.2129    -0.6803    -0.0132 C.ar    
   4 C4             2.3976     0.0290    -0.0207 C.ar    
   5 C5             2.3770     1.4103    -0.0126 C.ar    
   6 C6             1.1673     2.0911     0.0021 C.ar    
   7 C7             4.2191     0.9734     2.2455 C.3     
   8 C8             4.6339     1.9530     1.1404 C.3     
   9 C9             3.6721     2.1807    -0.0203 C.3     
  10 C10            3.7622     1.7878     3.4636 C.3     
  11 C11            4.8146     2.7315     4.0570 C.3     
  12 N12            5.4201     3.5104     2.9787 N.pl3   
  13 C13            5.4384     3.1295     1.6431 C.2     
  14 N14            6.2177     3.8909     0.9653 N.2     
  15 C15            6.9885     4.9341     4.2251 C.ar    
  16 C16            6.5714     6.0474     4.9631 C.ar    
  17 C17            8.0636     4.1582     4.6197 C.ar    
  18 C18            8.7213     4.5278     5.7860 C.ar    
  19 C19            8.3186     5.6254     6.5227 C.ar    
  20 C20            7.2412     6.4095     6.1354 C.ar    
  21 F21            8.9915     5.9433     7.6502 F       
  22 N22           -1.2025    -0.7221     0.0101 N.pl3   
  23 C23           -1.5481    -1.7436    -0.8365 C.2     
  24 C24           -2.7829    -2.1449    -0.4797 C.2     
  25 N25           -3.1849    -1.3928     0.5555 N.2     
  26 C26           -2.2448    -0.5409     0.8620 C.2     
  27 C27           -3.5763    -3.2481    -1.1312 C.3     
  28 C28            6.0944     4.8003     3.0381 C.3     
  29 O29            6.8217     4.8679     1.8046 O.3     
  30 N30            5.4798     6.6694     4.3806 N.pl3   
  31 C31            5.0958     5.9574     3.1511 C.3     
  32 C32            2.3016     2.2340     3.5086 C.3     
  33 C33            2.7891     1.1163     4.4331 C.3     
  34 C34            0.4629     3.4218     0.0161 C.3     
  35 C35           -0.8467     2.6452     0.0190 C.3     
  36 C36            4.9646     1.3891    -0.2368 C.3     
  37 H37            1.2292    -1.7602    -0.0188 H       
  38 H38            3.3410    -0.4965    -0.0325 H       
  39 H39            3.3992     0.3476     1.8932 H       
  40 H40            5.0684     0.3474     2.5195 H       
  41 H41            3.6195     3.1848    -0.4411 H       
  42 H42            4.3394     3.4048     4.7705 H       
  43 H43            5.5844     2.1478     4.5617 H       
  44 H44            8.3785     3.3000     4.0447 H       
  45 H45            9.5651     3.9448     6.1244 H       
  46 H46            6.9324     7.2657     6.7168 H       
  47 H47           -0.9458    -2.1482    -1.6365 H       
  48 H48           -2.2908     0.1904     1.6554 H       
  49 H49           -3.3580    -4.1941    -0.6357 H       
  50 H50           -4.6407    -3.0299    -1.0449 H       
  51 H51           -3.3040    -3.3183    -2.1844 H       
  52 H52            5.0349     7.4571     4.7305 H       
  53 H53            5.1813     6.6177     2.2881 H       
  54 H54            4.0791     5.5738     3.2368 H       
  55 H55            2.0848     3.2021     3.9602 H       
  56 H56            1.6632     1.9520     2.6713 H       
  57 H57            2.4717     0.0991     4.2039 H       
  58 H58            2.8933     1.3491     5.4928 H       
  59 H59            0.6343     3.9966     0.9262 H       
  60 H60            0.6180     4.0070    -0.8904 H       
  61 H61           -1.4397     2.7865    -0.8845 H       
  62 H62           -1.4280     2.7737     0.9321 H       
  63 H63            5.7627     1.8724    -0.8004 H       
  64 H64            4.8780     0.3112    -0.3736 H       
@<TRIPOS>BOND
   1    1    2 ar
   2    1    6 ar
   3    1   35 1
   4    2    3 ar
   5    2   22 1
   6    3    4 ar
   7    3   37 1
   8    4    5 ar
   9    4   38 1
  10    5    6 ar
  11    5    9 1
  12    6   34 1
  13    7    8 1
  14    7   10 1
  15    7   39 1
  16    7   40 1
  17    8    9 1
  18    8   36 1
  19    8   13 1
  20    9   36 1
  21    9   41 1
  22   10   11 1
  23   10   32 1
  24   10   33 1
  25   11   12 1
  26   11   42 1
  27   11   43 1
  28   12   13 1
  29   12   28 1
  30   13   14 2
  31   14   29 1
  32   15   16 ar
  33   15   17 ar
  34   15   28 1
  35   16   30 1
  36   16   20 ar
  37   17   18 ar
  38   17   44 1
  39   18   19 ar
  40   18   45 1
  41   19   20 ar
  42   19   21 1
  43   20   46 1
  44   22   23 1
  45   22   26 1
  46   23   24 2
  47   23   47 1
  48   24   25 1
  49   24   27 1
  50   25   26 2
  51   26   48 1
  52   27   49 1
  53   27   50 1
  54   27   51 1
  55   28   29 1
  56   28   31 1
  57   30   31 1
  58   30   52 1
  59   31   53 1
  60   31   54 1
  61   32   33 1
  62   32   55 1
  63   32   56 1
  64   33   57 1
  65   33   58 1
  66   34   35 1
  67   34   59 1
  68   34   60 1
  69   35   61 1
  70   35   62 1
  71   36   63 1
  72   36   64 1

#	End of record

