#	Name: ASD04882132
#	Creating user name:	WinNT
#	Creation time:	15. 06. 2019 20:54

#	Modifying user name:	WinNT
#	Modification time:	15. 06. 2019 20:54

#	Program:	/corina/corina34_cracker 3.40 0067  02.08.2006

@<TRIPOS>MOLECULE
ASD04882132
  85   89    0    0    0
SMALL
NO_CHARGES


@<TRIPOS>ATOM
   1 C1            -0.4604     1.4520    -0.7101 C.ar    
   2 C2            -0.3546     0.0086    -0.4215 C.2     
   3 O3             0.6641    -0.4406     0.0677 O.2     
   4 N4            -1.3870    -0.8118    -0.7000 N.am    
   5 C5            -1.2481    -2.1955    -0.5290 C.ar    
   6 C6            -2.3460    -2.9652    -0.1332 C.ar    
   7 C7            -2.2096    -4.3377     0.0372 C.ar    
   8 C8            -0.9927    -4.9447    -0.1831 C.ar    
   9 C9             0.1087    -4.1813    -0.5789 C.ar    
  10 C10           -0.0274    -2.8013    -0.7570 C.ar    
  11 N11           -3.5777    -2.3557     0.0911 N.3     
  12 C12           -3.5187    -1.4617     1.2559 C.3     
  13 C13           -4.8651    -0.7529     1.4204 C.3     
  14 N14           -5.9270    -1.7557     1.5831 N.3     
  15 C15           -5.9861    -2.6497     0.4183 C.3     
  16 C16           -4.6396    -3.3585     0.2538 C.3     
  17 C17           -7.1626    -1.1444     1.8081 C.ar    
  18 C18           -7.3860    -0.4376     2.9832 C.ar    
  19 C19           -9.6101     0.0671     2.2536 C.ar    
  20 C20           -8.1686    -1.2368     0.8551 C.ar    
  21 C21           -8.6085     0.1659     3.2022 C.ar    
  22 C22           -9.3892    -0.6307     1.0805 C.ar    
  23 C23            1.4120    -4.8314    -0.8139 C.2     
  24 N24            1.5409    -6.1626    -0.6468 N.am    
  25 O25            2.3699    -4.1663    -1.1583 O.2     
  26 C26            2.8351    -6.8082    -0.8801 C.3     
  27 C27            2.7093    -8.3110    -0.6221 C.3     
  28 C28            4.0609    -8.9852    -0.8658 C.3     
  29 N29            3.9404   -10.4242    -0.6188 N.am    
  30 C30            3.6069   -11.3292    -1.5552 C.2     
  31 C31            4.1744   -11.0638     0.6812 C.3     
  32 C32            3.5227   -12.4605     0.5768 C.3     
  33 C33            3.5673   -12.7147    -0.9490 C.3     
  34 O34            3.3712   -11.0722    -2.7168 O.2     
  35 C35           -6.2955    -0.3302     4.0178 C.3     
  36 C36            0.6091     2.3040    -0.4220 C.ar    
  37 C37            0.5051     3.6543    -0.6940 C.ar    
  38 C38           -0.6649     4.1642    -1.2547 C.ar    
  39 C39           -1.7275     3.3177    -1.5405 C.ar    
  40 C40           -1.6279     1.9688    -1.2774 C.ar    
  41 O41            1.5440     4.4864    -0.4144 O.3     
  42 C42            2.7118     3.8958     0.1597 C.3     
  43 O43           -0.7656     5.4919    -1.5216 O.3     
  44 C44           -1.9925     5.9469    -2.0959 C.3     
  45 H45           -2.2261    -0.4443    -1.0188 H       
  46 H46           -3.0594    -4.9297     0.3435 H       
  47 H47           -0.8898    -6.0114    -0.0495 H       
  48 H48            0.8210    -2.2093    -1.0672 H       
  49 H49           -3.3028    -2.0447     2.1512 H       
  50 H50           -2.7335    -0.7206     1.1061 H       
  51 H51           -4.8331    -0.1111     2.3009 H       
  52 H52           -5.0682    -0.1483     0.5365 H       
  53 H53           -6.7712    -3.3908     0.5681 H       
  54 H54           -6.2019    -2.0667    -0.4770 H       
  55 H55           -4.6717    -4.0003    -0.6267 H       
  56 H56           -4.4365    -3.9631     1.1377 H       
  57 H57          -10.5654     0.5398     2.4275 H       
  58 H58           -7.9967    -1.7817    -0.0614 H       
  59 H59           -8.7828     0.7155     4.1154 H       
  60 H60          -10.1734    -0.7060     0.3418 H       
  61 H61            0.7768    -6.6931    -0.3720 H       
  62 H62            3.1436    -6.6412    -1.9121 H       
  63 H63            3.5792    -6.3848    -0.2054 H       
  64 H64            2.4008    -8.4779     0.4099 H       
  65 H65            1.9652    -8.7344    -1.2968 H       
  66 H66            4.3694    -8.8183    -1.8978 H       
  67 H67            4.8050    -8.5619    -0.1911 H       
  68 H68            5.2441   -11.1596     0.8674 H       
  69 H69            3.7028   -10.4860     1.4761 H       
  70 H70            4.1104   -13.2062     1.1122 H       
  71 H71            2.4957   -12.4400     0.9414 H       
  72 H72            2.6735   -13.2477    -1.2732 H       
  73 H73            4.4641   -13.2735    -1.2165 H       
  74 H74           -5.7360     0.5921     3.8616 H       
  75 H75           -6.7390    -0.3220     5.0135 H       
  76 H76           -5.6229    -1.1831     3.9266 H       
  77 H77            1.5149     1.9077     0.0127 H       
  78 H78           -2.6326     3.7166    -1.9742 H       
  79 H79           -2.4560     1.3125    -1.5007 H       
  80 H80            2.4518     3.4233     1.1069 H       
  81 H81            3.1125     3.1460    -0.5225 H       
  82 H82            3.4618     4.6677     0.3324 H       
  83 H83           -2.8164     5.7209    -1.4191 H       
  84 H84           -1.9404     7.0235    -2.2581 H       
  85 H85           -2.1563     5.4435    -3.0487 H       
@<TRIPOS>BOND
   1    1    2 1
   2    1   36 ar
   3    1   40 ar
   4    2    3 2
   5    2    4 am
   6    4    5 1
   7    4   45 1
   8    5    6 ar
   9    5   10 ar
  10    6    7 ar
  11    6   11 1
  12    7    8 ar
  13    7   46 1
  14    8    9 ar
  15    8   47 1
  16    9   10 ar
  17    9   23 1
  18   10   48 1
  19   11   12 1
  20   11   16 1
  21   12   13 1
  22   12   49 1
  23   12   50 1
  24   13   14 1
  25   13   51 1
  26   13   52 1
  27   14   15 1
  28   14   17 1
  29   15   16 1
  30   15   53 1
  31   15   54 1
  32   16   55 1
  33   16   56 1
  34   17   18 ar
  35   17   20 ar
  36   18   21 ar
  37   18   35 1
  38   19   21 ar
  39   19   22 ar
  40   19   57 1
  41   20   22 ar
  42   20   58 1
  43   21   59 1
  44   22   60 1
  45   23   24 am
  46   23   25 2
  47   24   26 1
  48   24   61 1
  49   26   27 1
  50   26   62 1
  51   26   63 1
  52   27   28 1
  53   27   64 1
  54   27   65 1
  55   28   29 1
  56   28   66 1
  57   28   67 1
  58   29   30 am
  59   29   31 1
  60   30   34 2
  61   30   33 1
  62   31   32 1
  63   31   68 1
  64   31   69 1
  65   32   33 1
  66   32   70 1
  67   32   71 1
  68   33   72 1
  69   33   73 1
  70   35   74 1
  71   35   75 1
  72   35   76 1
  73   36   37 ar
  74   36   77 1
  75   37   38 ar
  76   37   41 1
  77   38   39 ar
  78   38   43 1
  79   39   40 ar
  80   39   78 1
  81   40   79 1
  82   41   42 1
  83   42   80 1
  84   42   81 1
  85   42   82 1
  86   43   44 1
  87   44   83 1
  88   44   84 1
  89   44   85 1

#	End of record

