#	Name: ASD01903308
#	Creating user name:	WinNT
#	Creation time:	15. 06. 2019 19:54

#	Modifying user name:	WinNT
#	Modification time:	15. 06. 2019 19:54

#	Program:	/corina/corina34_cracker 3.40 0067  02.08.2006

@<TRIPOS>MOLECULE
ASD01903308
  33   36    0    0    0
SMALL
NO_CHARGES


@<TRIPOS>ATOM
   1 N1            -0.0111     0.9658     0.0074 N.pl3   
   2 H2             0.0452    -0.0025     0.0035 H       
   3 C3             1.1478     1.7280    -0.0088 C.2     
   4 C4            -1.2544     1.5904     0.0234 C.ar    
   5 N5            -1.3251     2.9087     0.1244 N.ar    
   6 C6            -2.4836     3.5401     0.1427 C.ar    
   7 C7            -3.6716     2.8423     0.0570 C.ar    
   8 C8            -3.6412     1.4580    -0.0503 C.ar    
   9 C9            -2.4119     0.8246    -0.0727 C.ar    
  10 S10            2.7871     1.0908     0.0955 S.3     
  11 C11            3.4269     2.7249     0.0218 C.2     
  12 C12            2.3902     3.5837    -0.1245 C.2     
  13 N13            1.1937     3.0222    -0.1090 N.2     
  14 C14            4.8504     3.1698     0.1512 C.3     
  15 C15            5.5096     3.5249    -1.1912 C.3     
  16 C16            4.4980     4.3285    -2.0300 C.3     
  17 C17            3.7499     5.3455    -1.2245 C.2     
  18 C18            2.7295     5.0225    -0.3784 C.2     
  19 N19            3.8951     6.6801    -1.1731 N.pl3   
  20 N20            2.8904     7.1953    -0.3377 N.2     
  21 C21            2.1841     6.1932     0.1344 C.2     
  22 H22           -2.5027     4.6167     0.2262 H       
  23 H23           -4.6152     3.3675     0.0735 H       
  24 H24           -4.5568     0.8892    -0.1184 H       
  25 H25           -2.3515    -0.2506    -0.1556 H       
  26 H26            4.8843     4.0460     0.7988 H       
  27 H27            5.4241     2.3707     0.6207 H       
  28 H28            6.4009     4.1270    -1.0148 H       
  29 H29            5.7815     2.6114    -1.7199 H       
  30 H30            5.0329     4.8392    -2.8308 H       
  31 H31            3.7823     3.6369    -2.4744 H       
  32 H32            4.5753     7.1973    -1.6322 H       
  33 H33            1.3355     6.2659     0.7986 H       
@<TRIPOS>BOND
   1    1    2 1
   2    1    3 1
   3    1    4 1
   4    3   10 1
   5    3   13 2
   6    4    5 ar
   7    4    9 ar
   8    5    6 ar
   9    6    7 ar
  10    6   22 1
  11    7    8 ar
  12    7   23 1
  13    8    9 ar
  14    8   24 1
  15    9   25 1
  16   10   11 1
  17   11   12 2
  18   11   14 1
  19   12   13 1
  20   12   18 1
  21   14   15 1
  22   14   26 1
  23   14   27 1
  24   15   16 1
  25   15   28 1
  26   15   29 1
  27   16   17 1
  28   16   30 1
  29   16   31 1
  30   17   18 2
  31   17   19 1
  32   18   21 1
  33   19   20 1
  34   19   32 1
  35   20   21 2
  36   21   33 1

#	End of record

