#	Name: ASD09120009
#	Creating user name:	WinNT
#	Creation time:	15. 06. 2019 21:21

#	Modifying user name:	WinNT
#	Modification time:	15. 06. 2019 21:21

#	Program:	/corina/corina34_cracker 3.40 0067  02.08.2006

@<TRIPOS>MOLECULE
ASD09120009
  29   30    0    0    0
SMALL
NO_CHARGES


@<TRIPOS>ATOM
   1 C1            -0.0183     1.3757    -0.0324 C.ar    
   2 C2            -0.0004    -0.0033    -0.0599 C.ar    
   3 C3             1.2047    -0.6835    -0.0646 C.ar    
   4 C4             2.3996     0.0128    -0.0418 C.ar    
   5 C5             2.3969     1.3936    -0.0142 C.ar    
   6 C6             1.1832     2.0861    -0.0098 C.ar    
   7 N7            -1.2737    -0.7576    -0.0840 N.pl3   
   8 O8            -2.3354    -0.1606    -0.0795 O.2     
   9 O9            -1.2599    -1.9753    -0.1083 O.2     
  10 C10            1.1715     3.5632     0.0192 C.2     
  11 O11            2.2196     4.1791     0.0389 O.2     
  12 N12           -0.0009     4.2279     0.0238 N.am    
  13 C13           -0.0140     5.6238     0.1367 C.ar    
  14 Cl14           3.8972     2.2665     0.0156 Cl      
  15 C15            1.0679     7.7429    -0.1632 C.ar    
  16 C16            1.0835     6.3651    -0.2752 C.ar    
  17 C17           -1.1321     6.2722     0.6578 C.ar    
  18 C18           -1.1396     7.6529     0.7666 C.ar    
  19 C19           -0.0395     8.3849     0.3587 C.ar    
  20 O20           -2.2132     5.5511     1.0581 O.3     
  21 H21           -0.9598     1.9047    -0.0330 H       
  22 H22            1.2122    -1.7632    -0.0858 H       
  23 H23            3.3365    -0.5244    -0.0452 H       
  24 H24           -0.8356     3.7395    -0.0510 H       
  25 H25            1.9232     8.3191    -0.4839 H       
  26 H26            1.9501     5.8661    -0.6830 H       
  27 H27           -2.0049     8.1580     1.1698 H       
  28 H28           -0.0470     9.4615     0.4446 H       
  29 H29           -2.1836     5.2801     1.9859 H       
@<TRIPOS>BOND
   1    1    2 ar
   2    1    6 ar
   3    1   21 1
   4    2    3 ar
   5    2    7 1
   6    3    4 ar
   7    3   22 1
   8    4    5 ar
   9    4   23 1
  10    5    6 ar
  11    5   14 1
  12    6   10 1
  13    7    8 2
  14    7    9 2
  15   10   11 2
  16   10   12 am
  17   12   13 1
  18   12   24 1
  19   13   17 ar
  20   13   16 ar
  21   15   16 ar
  22   15   19 ar
  23   15   25 1
  24   16   26 1
  25   17   18 ar
  26   17   20 1
  27   18   19 ar
  28   18   27 1
  29   19   28 1
  30   20   29 1

#	End of record

