#	Name: ASD00170889
#	Creating user name:	WinNT
#	Creation time:	15. 06. 2019 18:32

#	Modifying user name:	WinNT
#	Modification time:	15. 06. 2019 18:32

#	Program:	/corina/corina34_cracker 3.40 0067  02.08.2006

@<TRIPOS>MOLECULE
ASD00170889
  41   44    0    0    0
SMALL
NO_CHARGES


@<TRIPOS>ATOM
   1 C1             0.8608     0.1212    -1.8727 C.2     
   2 N2             0.3882    -0.0327    -0.6226 N.am    
   3 C3             1.2389     0.4826     0.2833 C.2     
   4 C4             2.4057     1.0417    -0.4310 C.ar    
   5 C5             3.5682     1.6824    -0.0334 C.ar    
   6 C6             4.4869     2.0931    -0.9866 C.ar    
   7 C7             4.2513     1.8679    -2.3300 C.ar    
   8 C8             3.0927     1.2286    -2.7428 C.ar    
   9 C9             2.1654     0.8120    -1.8012 C.ar    
  10 O10            0.3100    -0.2500    -2.8894 O.2     
  11 O11            1.0754     0.4876     1.4866 O.2     
  12 C12           -0.8186    -0.6430    -0.3087 C.2     
  13 C13           -0.9858    -1.9930    -0.1218 C.2     
  14 C14           -2.3514    -2.3490     0.1961 C.2     
  15 C15           -3.1653    -1.3045     0.2432 C.2     
  16 S16           -2.2952     0.1811    -0.0950 S.3     
  17 C17           -4.6386    -1.3815     0.5508 C.3     
  18 C18           -2.8027    -3.7647     0.4476 C.3     
  19 C19            0.1019    -2.9682    -0.2328 C.2     
  20 C20            0.8576    -3.3731     0.9717 C.ar    
  21 C21            1.9644    -4.2162     0.8543 C.ar    
  22 C22            2.6652    -4.5905     1.9813 C.ar    
  23 C23            2.2732    -4.1317     3.2282 C.ar    
  24 C24            1.1760    -3.2950     3.3510 C.ar    
  25 C25            0.4708    -2.9093     2.2306 C.ar    
  26 O26            0.3836    -3.4450    -1.3169 O.2     
  27 Cl27           3.1601    -4.6076     4.6426 Cl      
  28 H28            3.7574     1.8614     1.0147 H       
  29 H29            5.3931     2.5929    -0.6776 H       
  30 H30            4.9748     2.1927    -3.0631 H       
  31 H31            2.9136     1.0560    -3.7937 H       
  32 H32           -4.7907    -1.2870     1.6260 H       
  33 H33           -5.1597    -0.5733     0.0377 H       
  34 H34           -5.0310    -2.3401     0.2113 H       
  35 H35           -2.7080    -3.9930     1.5093 H       
  36 H36           -3.8439    -3.8735     0.1441 H       
  37 H37           -2.1826    -4.4515    -0.1284 H       
  38 H38            2.2707    -4.5748    -0.1173 H       
  39 H39            3.5212    -5.2428     1.8918 H       
  40 H40            0.8749    -2.9408     4.3258 H       
  41 H41           -0.3817    -2.2533     2.3271 H       
@<TRIPOS>BOND
   1    1    2 am
   2    1    9 1
   3    1   10 2
   4    2    3 am
   5    2   12 1
   6    3    4 1
   7    3   11 2
   8    4    5 ar
   9    4    9 ar
  10    5    6 ar
  11    5   28 1
  12    6    7 ar
  13    6   29 1
  14    7    8 ar
  15    7   30 1
  16    8    9 ar
  17    8   31 1
  18   12   13 2
  19   12   16 1
  20   13   14 1
  21   13   19 1
  22   14   15 2
  23   14   18 1
  24   15   16 1
  25   15   17 1
  26   17   32 1
  27   17   33 1
  28   17   34 1
  29   18   35 1
  30   18   36 1
  31   18   37 1
  32   19   20 1
  33   19   26 2
  34   20   21 ar
  35   20   25 ar
  36   21   22 ar
  37   21   38 1
  38   22   23 ar
  39   22   39 1
  40   23   24 ar
  41   23   27 1
  42   24   25 ar
  43   24   40 1
  44   25   41 1

#	End of record

