#	Name: ASD02560137
#	Creating user name:	WinNT
#	Creation time:	15. 06. 2019 20:24

#	Modifying user name:	WinNT
#	Modification time:	15. 06. 2019 20:24

#	Program:	/corina/corina34_cracker 3.40 0067  02.08.2006

@<TRIPOS>MOLECULE
ASD02560137
  62   65    0    0    0
SMALL
NO_CHARGES


@<TRIPOS>ATOM
   1 N1             0.4102     1.2934     0.0730 N.2     
   2 N2             0.2193     0.0791    -0.0455 N.2     
   3 C3             1.8382     1.5929     0.2402 C.3     
   4 N4             2.4583     0.2922     0.5984 N.3     
   5 C5             1.4831    -0.6663     0.0198 C.3     
   6 S6             1.3068    -2.1155     1.0965 S.3     
   7 C7             0.7204    -1.3967     2.6554 C.3     
   8 C8             0.5224    -2.4926     3.6707 C.2     
   9 O9             0.7541    -3.6451     3.3721 O.2     
  10 N10            0.0879    -2.1921     4.9106 N.am    
  11 C11            2.4284     2.1221    -1.0684 C.3     
  12 C12            3.7123     0.1536    -0.0009 C.ar    
  13 C13           -0.1579    -3.2155     5.8333 C.ar    
  14 C14           -1.1746    -3.0784     6.7713 C.ar    
  15 C15           -1.4146    -4.0911     7.6803 C.ar    
  16 C16           -0.6445    -5.2397     7.6571 C.ar    
  17 C17            0.3673    -5.3786     6.7252 C.ar    
  18 C18            0.6092    -4.3721     5.8101 C.ar    
  19 Cl19          -2.1410    -1.6366     6.8010 Cl      
  20 S20           -0.9531    -6.5286     8.8181 S.o2    
  21 O21            0.2570    -7.2647     8.9316 O.2     
  22 O22           -1.6009    -5.9221     9.9280 O.2     
  23 C23            4.7337     1.0520     0.3115 C.ar    
  24 C24            3.9367    -0.8788    -0.8983 C.ar    
  25 C25            5.1778    -1.0136    -1.4896 C.ar    
  26 C26            6.1856    -0.1230    -1.1818 C.ar    
  27 C27            5.9687     0.9090    -0.2765 C.ar    
  28 C28            7.1197     1.8343     0.0203 C.3     
  29 C29            6.6185     3.1268     0.6613 C.3     
  30 C30            5.7127     2.7610     1.8431 C.3     
  31 C31            4.4230     2.1558     1.2881 C.3     
  32 N32           -2.0602    -7.5515     8.1322 N.am    
  33 C33            7.5378    -0.2744    -1.8296 C.3     
  34 C34            8.4586    -1.0752    -0.9067 C.3     
  35 H35            1.9829     2.3162     1.0428 H       
  36 H36            1.7965    -0.9702    -0.9789 H       
  37 H37            1.4578    -0.6855     3.0276 H       
  38 H38           -0.2260    -0.8835     2.4855 H       
  39 H39           -0.0545    -1.2665     5.1635 H       
  40 H40            1.8543     2.9863    -1.4026 H       
  41 H41            3.4657     2.4155    -0.9067 H       
  42 H42            2.3857     1.3417    -1.8281 H       
  43 H43           -2.2040    -3.9855     8.4097 H       
  44 H44            0.9670    -6.2767     6.7101 H       
  45 H45            1.3999    -4.4817     5.0826 H       
  46 H46            3.1450    -1.5746    -1.1338 H       
  47 H47            5.3589    -1.8147    -2.1909 H       
  48 H48            7.8118     1.3399     0.7020 H       
  49 H49            7.6389     2.0716    -0.9083 H       
  50 H50            7.4659     3.7133     1.0162 H       
  51 H51            6.0525     3.7038    -0.0700 H       
  52 H52            6.2175     2.0362     2.4819 H       
  53 H53            5.4789     3.6573     2.4176 H       
  54 H54            3.8489     2.9335     0.7843 H       
  55 H55            3.8334     1.7503     2.1103 H       
  56 H56           -2.4044    -7.3685     7.2440 H       
  57 H57           -2.3644    -8.3336     8.6187 H       
  58 H58            7.4292    -0.7991    -2.7788 H       
  59 H59            7.9684     0.7112    -2.0064 H       
  60 H60            8.5672    -0.5505     0.0425 H       
  61 H61            8.0280    -2.0608    -0.7299 H       
  62 H62            9.4367    -1.1847    -1.3752 H       
@<TRIPOS>BOND
   1    1    2 2
   2    1    3 1
   3    2    5 1
   4    3    4 1
   5    3   11 1
   6    3   35 1
   7    4    5 1
   8    4   12 1
   9    5    6 1
  10    5   36 1
  11    6    7 1
  12    7    8 1
  13    7   37 1
  14    7   38 1
  15    8    9 2
  16    8   10 am
  17   10   13 1
  18   10   39 1
  19   11   40 1
  20   11   41 1
  21   11   42 1
  22   12   23 ar
  23   12   24 ar
  24   13   14 ar
  25   13   18 ar
  26   14   15 ar
  27   14   19 1
  28   15   16 ar
  29   15   43 1
  30   16   17 ar
  31   16   20 1
  32   17   18 ar
  33   17   44 1
  34   18   45 1
  35   20   21 2
  36   20   22 2
  37   20   32 am
  38   23   27 ar
  39   23   31 1
  40   24   25 ar
  41   24   46 1
  42   25   26 ar
  43   25   47 1
  44   26   27 ar
  45   26   33 1
  46   27   28 1
  47   28   29 1
  48   28   48 1
  49   28   49 1
  50   29   30 1
  51   29   50 1
  52   29   51 1
  53   30   31 1
  54   30   52 1
  55   30   53 1
  56   31   54 1
  57   31   55 1
  58   32   56 1
  59   32   57 1
  60   33   34 1
  61   33   58 1
  62   33   59 1
  63   34   60 1
  64   34   61 1
  65   34   62 1

#	End of record

