#	Name: ASD03910084
#	Creating user name:	WinNT
#	Creation time:	15. 06. 2019 20:47

#	Modifying user name:	WinNT
#	Modification time:	15. 06. 2019 20:47

#	Program:	/corina/corina34_cracker 3.40 0067  02.08.2006

@<TRIPOS>MOLECULE
ASD03910084
  24   24    0    0    0
SMALL
NO_CHARGES


@<TRIPOS>ATOM
   1 C1            -0.0168     1.3905     0.0097 C.ar    
   2 C2             0.0021    -0.0041     0.0020 C.ar    
   3 C3             1.2167    -0.6865    -0.0133 C.ar    
   4 C4             2.4228     0.0320    -0.0210 C.ar    
   5 C5             2.3984     1.4357    -0.0132 C.ar    
   6 C6             1.1787     2.1088     0.0021 C.ar    
   7 C7            -1.3092     2.1102     0.0197 C.2     
   8 O8            -2.3514     1.4867     0.0213 O.2     
   9 O9            -1.3301     3.4569     0.0271 O.3     
  10 C10            1.2353    -2.1652    -0.0209 C.2     
  11 O11            2.2946    -2.7590    -0.0343 O.2     
  12 O12            0.0775    -2.8534    -0.0131 O.3     
  13 C13            3.7172    -0.6888    -0.0368 C.2     
  14 O14            4.2376    -0.9788    -1.0946 O.2     
  15 O15            4.3165    -1.0223     1.1223 O.3     
  16 C16            3.6653     2.1985    -0.0213 C.2     
  17 O17            4.7280     1.6108    -0.0346 O.2     
  18 O18            3.6406     3.5453    -0.0138 O.3     
  19 H19           -0.9263    -0.5559     0.0083 H       
  20 H20            1.1588     3.1886     0.0078 H       
  21 H21           -2.1984     3.8824     0.0336 H       
  22 H22            0.1403    -3.8183    -0.0185 H       
  23 H23            5.1596    -1.4918     1.0614 H       
  24 H24            4.4939     4.0001    -0.0195 H       
@<TRIPOS>BOND
   1    1    2 ar
   2    1    6 ar
   3    1    7 1
   4    2    3 ar
   5    2   19 1
   6    3    4 ar
   7    3   10 1
   8    4    5 ar
   9    4   13 1
  10    5    6 ar
  11    5   16 1
  12    6   20 1
  13    7    8 2
  14    7    9 1
  15    9   21 1
  16   10   11 2
  17   10   12 1
  18   12   22 1
  19   13   14 2
  20   13   15 1
  21   15   23 1
  22   16   17 2
  23   16   18 1
  24   18   24 1

#	End of record

