#	Name: ASD03091600
#	Creating user name:	WinNT
#	Creation time:	15. 06. 2019 20:31

#	Modifying user name:	WinNT
#	Modification time:	15. 06. 2019 20:31

#	Program:	/corina/corina34_cracker 3.40 0067  02.08.2006

@<TRIPOS>MOLECULE
ASD03091600
  20   21    0    0    0
SMALL
NO_CHARGES


@<TRIPOS>ATOM
   1 O1            -0.0162     1.3454     0.0094 O.3     
   2 C2             0.0021    -0.0041     0.0020 C.2     
   3 C3             1.2873    -0.4453    -0.0126 C.2     
   4 C4             2.1265     0.7521    -0.0142 C.ar    
   5 C5             1.2359     1.8423     0.0002 C.ar    
   6 C6             1.7474     3.1346     0.0026 C.ar    
   7 C7             3.1114     3.3327    -0.0090 C.ar    
   8 C8             3.9850     2.2542    -0.0235 C.ar    
   9 C9             3.5054     0.9746    -0.0265 C.ar    
  10 C10           -1.1869    -0.8652     0.0092 C.2     
  11 O11           -1.0616    -2.0745     0.0019 O.2     
  12 O12           -2.4180    -0.3149     0.0238 O.3     
  13 N13            3.6507     4.7112    -0.0063 N.pl3   
  14 O14            2.8903     5.6626     0.0061 O.2     
  15 O15            4.8548     4.8941    -0.0164 O.2     
  16 H16            1.6213    -1.4723    -0.0213 H       
  17 H17            1.0776     3.9817     0.0132 H       
  18 H18            5.0510     2.4275    -0.0328 H       
  19 H19            4.1896     0.1390    -0.0371 H       
  20 H20           -3.1704    -0.9224     0.0280 H       
@<TRIPOS>BOND
   1    1    2 1
   2    1    5 1
   3    2    3 2
   4    2   10 1
   5    3    4 1
   6    3   16 1
   7    4    5 ar
   8    4    9 ar
   9    5    6 ar
  10    6    7 ar
  11    6   17 1
  12    7    8 ar
  13    7   13 1
  14    8    9 ar
  15    8   18 1
  16    9   19 1
  17   10   11 2
  18   10   12 1
  19   12   20 1
  20   13   14 2
  21   13   15 2

#	End of record

