#	Name: ASD03730912
#	Creating user name:	WinNT
#	Creation time:	15. 06. 2019 20:44

#	Modifying user name:	WinNT
#	Modification time:	15. 06. 2019 20:44

#	Program:	/corina/corina34_cracker 3.40 0067  02.08.2006

@<TRIPOS>MOLECULE
ASD03730912
  62   68    0    0    0
SMALL
NO_CHARGES


@<TRIPOS>ATOM
   1 C1            -0.0182     1.4735     0.0148 C.2     
   2 C2             0.0014    -0.0045     0.0118 C.ar    
   3 C3             1.2179    -0.6895     0.0014 C.ar    
   4 C4             1.2291    -2.0688    -0.0015 C.ar    
   5 C5             0.0382    -2.7735     0.0060 C.ar    
   6 C6            -1.1707    -2.1009     0.0164 C.ar    
   7 C7            -1.1960    -0.7214     0.0251 C.ar    
   8 O8             1.0264     2.0953     0.0082 O.2     
   9 N9            -1.1942     2.1319     0.0193 N.am    
  10 C10           -1.2149     3.5256     0.1325 C.ar    
  11 C11           -2.1831     4.2640    -0.5361 C.ar    
  12 C12           -2.2007     5.6400    -0.4223 C.ar    
  13 C13           -1.2556     6.2832     0.3561 C.ar    
  14 C14           -0.2906     5.5512     1.0230 C.ar    
  15 C15           -0.2711     4.1740     0.9182 C.ar    
  16 C16           -3.2507     6.4418    -1.1473 C.3     
  17 F17           -4.3723     6.5931    -0.3250 F       
  18 F18           -2.7352     7.7019    -1.4695 F       
  19 F19           -3.6191     5.7749    -2.3206 F       
  20 C20            2.5412    -2.8099    -0.0132 C.3     
  21 O21           -0.9086    -3.3033     6.2754 O.3     
  22 C22           -0.9521    -3.5535     7.6926 C.3     
  23 O23           -0.0476    -4.6590     7.8730 O.3     
  24 C24            0.8520    -4.5663     6.8498 C.ar    
  25 C25            0.3216    -3.7334     5.8673 C.ar    
  26 C26            2.1015    -5.1337     6.6748 C.ar    
  27 C27            2.8356    -4.8801     5.5201 C.ar    
  28 C28            2.2916    -4.0530     4.5421 C.ar    
  29 C29            1.0488    -3.4809     4.7163 C.ar    
  30 O30            4.0762    -5.3190     5.1618 O.3     
  31 C31            3.2952    -3.9965     3.4215 C.3     
  32 C32            4.2442    -5.1599     3.7398 C.3     
  33 N33            2.9772    -3.0529     1.3642 N.am    
  34 C34            2.6515    -4.1516     2.0738 C.2     
  35 C35            4.0180    -2.6832     3.3683 C.ar    
  36 C36            4.7885    -1.9841     4.2704 C.ar    
  37 C37            5.3351    -0.7637     3.9154 C.ar    
  38 C38            5.1053    -0.2477     2.6529 C.ar    
  39 C39            4.3335    -0.9437     1.7462 C.ar    
  40 C40            3.7796    -2.1731     2.0948 C.ar    
  41 O41            1.9720    -5.0832     1.6975 O.2     
  42 H42            2.1480    -0.1407    -0.0048 H       
  43 H43            0.0525    -3.8534     0.0034 H       
  44 H44           -2.0966    -2.6568     0.0222 H       
  45 H45           -2.1403    -0.1975     0.0381 H       
  46 H46           -2.0262     1.6390    -0.0560 H       
  47 H47           -2.9209     3.7624    -1.1447 H       
  48 H48           -1.2711     7.3596     0.4430 H       
  49 H49            0.4463     6.0565     1.6297 H       
  50 H50            0.4799     3.6025     1.4433 H       
  51 H51            2.4158    -3.7625    -0.5280 H       
  52 H52            3.2912    -2.2127    -0.5317 H       
  53 H53           -0.6056    -2.6809     8.2464 H       
  54 H54           -1.9602    -3.8291     8.0021 H       
  55 H55            2.5099    -5.7778     7.4395 H       
  56 H56            0.6416    -2.8346     3.9528 H       
  57 H57            5.2740    -4.8965     3.4987 H       
  58 H58            3.9404    -6.0631     3.2107 H       
  59 H59            4.9665    -2.3888     5.2557 H       
  60 H60            5.9402    -0.2155     4.6223 H       
  61 H61            5.5320     0.7050     2.3759 H       
  62 H62            4.1581    -0.5340     0.7625 H       
@<TRIPOS>BOND
   1    1    2 1
   2    1    8 2
   3    1    9 am
   4    2    3 ar
   5    2    7 ar
   6    3    4 ar
   7    3   42 1
   8    4    5 ar
   9    4   20 1
  10    5    6 ar
  11    5   43 1
  12    6    7 ar
  13    6   44 1
  14    7   45 1
  15    9   10 1
  16    9   46 1
  17   10   11 ar
  18   10   15 ar
  19   11   12 ar
  20   11   47 1
  21   12   13 ar
  22   12   16 1
  23   13   14 ar
  24   13   48 1
  25   14   15 ar
  26   14   49 1
  27   15   50 1
  28   16   17 1
  29   16   18 1
  30   16   19 1
  31   20   33 1
  32   20   51 1
  33   20   52 1
  34   21   22 1
  35   21   25 1
  36   22   23 1
  37   22   53 1
  38   22   54 1
  39   23   24 1
  40   24   25 ar
  41   24   26 ar
  42   25   29 ar
  43   26   27 ar
  44   26   55 1
  45   27   28 ar
  46   27   30 1
  47   28   29 ar
  48   28   31 1
  49   29   56 1
  50   30   32 1
  51   31   32 1
  52   31   34 1
  53   31   35 1
  54   32   57 1
  55   32   58 1
  56   33   34 am
  57   33   40 1
  58   34   41 2
  59   35   36 ar
  60   35   40 ar
  61   36   37 ar
  62   36   59 1
  63   37   38 ar
  64   37   60 1
  65   38   39 ar
  66   38   61 1
  67   39   40 ar
  68   39   62 1

#	End of record

