#	Name: ASD06170303
#	Creating user name:	WinNT
#	Creation time:	15. 06. 2019 21:05

#	Modifying user name:	WinNT
#	Modification time:	15. 06. 2019 21:05

#	Program:	/corina/corina34_cracker 3.40 0067  02.08.2006

@<TRIPOS>MOLECULE
ASD06170303
  80   85    0    0    0
SMALL
NO_CHARGES


@<TRIPOS>ATOM
   1 N1             0.4452     1.0494    -0.6565 N.am    
   2 N2             0.4175    -0.1827     0.0037 N.pl3   
   3 C3             1.6652    -0.6803     0.0988 C.2     
   4 C4             2.5387     0.2100    -0.4945 C.2     
   5 C5             1.7233     1.3336    -0.9821 C.2     
   6 C6             3.9944     0.0641    -0.6147 C.2     
   7 O7             4.5463    -0.9224    -0.1639 O.2     
   8 N8             4.7197     1.0227    -1.2242 N.am    
   9 C9            -0.7898    -0.8355     0.5160 C.3     
  10 C10            2.0445    -1.9882     0.7443 C.3     
  11 C11            6.1183     0.9560    -1.2130 C.ar    
  12 C12            6.7540    -0.2739    -1.1076 C.ar    
  13 C13            8.1351    -0.3388    -1.0971 C.ar    
  14 C14            8.8854     0.8267    -1.1920 C.ar    
  15 C15            8.2493     2.0547    -1.2967 C.ar    
  16 C16            6.8699     2.1195    -1.3130 C.ar    
  17 O17           10.2439     0.7634    -1.1817 O.3     
  18 N18           12.1160    -0.7405    -4.5346 N.ar    
  19 C19           12.8796    -0.2525    -3.5498 C.ar    
  20 C20           12.2763     0.2732    -2.3813 C.ar    
  21 C21           10.8664     0.2712    -2.2806 C.ar    
  22 C22           10.1410    -0.2491    -3.3382 C.ar    
  23 C23           10.8062    -0.7476    -4.4508 C.ar    
  24 O24            2.1231     2.3245    -1.5644 O.2     
  25 C25           -0.6665     1.8502    -0.9376 C.ar    
  26 C26           -1.6242     2.0800     0.0416 C.ar    
  27 C27           13.0785     0.7833    -1.3502 C.ar    
  28 C28           14.4334     0.7709    -1.4769 C.ar    
  29 C29           15.0396     0.2544    -2.6257 C.ar    
  30 C30           14.2796    -0.2530    -3.6553 C.ar    
  31 C31           17.1278     0.7939    -1.6268 C.3     
  32 O32           16.3941     0.2536    -2.7276 O.3     
  33 C33           -1.3825    -1.7359    -0.5698 C.3     
  34 C34           -2.7089    -2.3202    -0.0799 C.3     
  35 C35           -2.7205     2.8717    -0.2391 C.ar    
  36 C36           -2.8654     3.4350    -1.4937 C.ar    
  37 C37           -1.9137     3.2081    -2.4709 C.ar    
  38 C38           -0.8121     2.4221    -2.1949 C.ar    
  39 F39            8.7547    -1.5349    -0.9942 F       
  40 O40           -0.4712    -2.7985    -0.8573 O.3     
  41 N41           -3.3920    -2.9878    -1.1960 N.3     
  42 C42           -3.7622    -2.0219    -2.2406 C.3     
  43 C43           -4.4158    -2.7662    -3.4079 C.3     
  44 O44           -5.5439    -3.5015    -2.9261 O.3     
  45 C45           -5.2193    -4.4520    -1.9079 C.3     
  46 C46           -4.5738    -3.7247    -0.7254 C.3     
  47 H47            4.2728     1.7588    -1.6707 H       
  48 H48           -0.5351    -1.4376     1.3881 H       
  49 H49           -1.5206    -0.0777     0.7984 H       
  50 H50            2.0132    -2.7835    -0.0004 H       
  51 H51            3.0521    -1.9128     1.1532 H       
  52 H52            1.3427    -2.2142     1.5471 H       
  53 H53            6.1700    -1.1794    -1.0336 H       
  54 H54            8.8331     2.9604    -1.3697 H       
  55 H55            6.3754     3.0758    -1.3991 H       
  56 H56            9.0619    -0.2683    -3.2980 H       
  57 H57           10.2298    -1.1515    -5.2700 H       
  58 H58           -1.5119     1.6398     1.0214 H       
  59 H59           12.6220     1.1854    -0.4578 H       
  60 H60           15.0476     1.1649    -0.6807 H       
  61 H61           14.7576    -0.6498    -4.5387 H       
  62 H62           18.1956     0.7325    -1.8367 H       
  63 H63           16.8458     1.8363    -1.4789 H       
  64 H64           16.9015     0.2248    -0.7250 H       
  65 H65           -1.5549    -1.1507    -1.4731 H       
  66 H66           -2.5167    -3.0431     0.7130 H       
  67 H67           -3.3393    -1.5184     0.3045 H       
  68 H68           -3.4656     3.0508     0.5220 H       
  69 H69           -3.7240     4.0531    -1.7109 H       
  70 H70           -2.0298     3.6495    -3.4497 H       
  71 H71           -0.0692     2.2453    -2.9585 H       
  72 H72           -0.2714    -3.3618    -0.0972 H       
  73 H73           -4.4654    -1.2960    -1.8323 H       
  74 H74           -2.8688    -1.5060    -2.5924 H       
  75 H75           -4.7435    -2.0481    -4.1596 H       
  76 H76           -3.6951    -3.4539    -3.8503 H       
  77 H77           -6.1282    -4.9532    -1.5748 H       
  78 H78           -4.5220    -5.1887    -2.3067 H       
  79 H79           -4.2729    -4.4519     0.0287 H       
  80 H80           -5.2900    -3.0260    -0.2930 H       
@<TRIPOS>BOND
   1    1    2 1
   2    1    5 am
   3    1   25 1
   4    2    3 1
   5    2    9 1
   6    3    4 2
   7    3   10 1
   8    4    5 1
   9    4    6 1
  10    5   24 2
  11    6    7 2
  12    6    8 am
  13    8   11 1
  14    8   47 1
  15    9   33 1
  16    9   48 1
  17    9   49 1
  18   10   50 1
  19   10   51 1
  20   10   52 1
  21   11   12 ar
  22   11   16 ar
  23   12   13 ar
  24   12   53 1
  25   13   14 ar
  26   13   39 1
  27   14   15 ar
  28   14   17 1
  29   15   16 ar
  30   15   54 1
  31   16   55 1
  32   17   21 1
  33   18   19 ar
  34   18   23 ar
  35   19   20 ar
  36   19   30 ar
  37   20   21 ar
  38   20   27 ar
  39   21   22 ar
  40   22   23 ar
  41   22   56 1
  42   23   57 1
  43   25   26 ar
  44   25   38 ar
  45   26   35 ar
  46   26   58 1
  47   27   28 ar
  48   27   59 1
  49   28   29 ar
  50   28   60 1
  51   29   30 ar
  52   29   32 1
  53   30   61 1
  54   31   32 1
  55   31   62 1
  56   31   63 1
  57   31   64 1
  58   33   34 1
  59   33   40 1
  60   33   65 1
  61   34   41 1
  62   34   66 1
  63   34   67 1
  64   35   36 ar
  65   35   68 1
  66   36   37 ar
  67   36   69 1
  68   37   38 ar
  69   37   70 1
  70   38   71 1
  71   40   72 1
  72   41   42 1
  73   41   46 1
  74   42   43 1
  75   42   73 1
  76   42   74 1
  77   43   44 1
  78   43   75 1
  79   43   76 1
  80   44   45 1
  81   45   46 1
  82   45   77 1
  83   45   78 1
  84   46   79 1
  85   46   80 1

#	End of record

