#	Name: ASD00170410
#	Creating user name:	WinNT
#	Creation time:	15. 06. 2019 18:32

#	Modifying user name:	WinNT
#	Modification time:	15. 06. 2019 18:32

#	Program:	/corina/corina34_cracker 3.40 0067  02.08.2006

@<TRIPOS>MOLECULE
ASD00170410
  53   55    0    0    0
SMALL
NO_CHARGES


@<TRIPOS>ATOM
   1 C1             0.2078     1.0654    -0.1506 C.2     
   2 C2             0.0380    -0.2544     0.2068 C.2     
   3 C3            -1.3502    -0.6472     0.2545 C.2     
   4 C4            -2.1870     0.3501    -0.0579 C.2     
   5 S5            -1.2972     1.8188    -0.4177 S.3     
   6 C6            -1.8098    -2.0358     0.6173 C.3     
   7 C7            -3.6597     0.2316    -0.0897 C.ar    
   8 C8            -4.4522     1.1521     0.5986 C.ar    
   9 C9            -5.8263     1.0356     0.5647 C.ar    
  10 C10           -6.4194     0.0095    -0.1492 C.ar    
  11 C11           -5.6398    -0.9062    -0.8335 C.ar    
  12 C12           -4.2647    -0.7979    -0.8128 C.ar    
  13 N13            1.4291     1.6929    -0.2700 N.pl3   
  14 C14            1.1470    -1.1615     0.5061 C.2     
  15 C15            1.7238    -2.0025    -0.5646 C.ar    
  16 O16            1.5946    -1.2235     1.6368 O.2     
  17 C17            2.8495    -2.7878    -0.3091 C.ar    
  18 C18            3.3830    -3.5700    -1.3116 C.ar    
  19 C19            2.8045    -3.5774    -2.5701 C.ar    
  20 C20            1.6876    -2.8004    -2.8296 C.ar    
  21 C21            1.1414    -2.0188    -1.8334 C.ar    
  22 Cl22           3.4825    -4.5639    -3.8275 Cl      
  23 N23           -1.8645    -2.1671     2.0794 N.3     
  24 C24           -3.0426    -1.4804     2.6259 C.3     
  25 C25           -1.8445    -3.5796     2.4823 C.3     
  26 C26           -1.6514    -3.6753     3.9970 C.3     
  27 C27           -1.6305    -5.1465     4.4166 C.3     
  28 C28           -1.4375    -5.2421     5.9313 C.3     
  29 H29           -2.8011    -2.2112     0.1994 H       
  30 H30           -1.1103    -2.7673     0.2127 H       
  31 H31           -3.9905     1.9533     1.1565 H       
  32 H32           -6.4406     1.7468     1.0970 H       
  33 H33           -7.4957    -0.0774    -0.1721 H       
  34 H34           -6.1091    -1.7050    -1.3886 H       
  35 H35           -3.6574    -1.5131    -1.3476 H       
  36 H36            2.2417     1.2229    -0.0258 H       
  37 H37            1.4760     2.6044    -0.5983 H       
  38 H38            3.3019    -2.7823     0.6716 H       
  39 H39            4.2538    -4.1779    -1.1151 H       
  40 H40            1.2410    -2.8099    -3.8129 H       
  41 H41            0.2703    -1.4137    -2.0367 H       
  42 H42           -3.9478    -1.9640     2.2589 H       
  43 H43           -3.0198    -1.5305     3.7146 H       
  44 H44           -3.0342    -0.4373     2.3099 H       
  45 H45           -2.7883    -4.0497     2.2059 H       
  46 H46           -1.0234    -4.0895     1.9784 H       
  47 H47           -0.7076    -3.2052     4.2734 H       
  48 H48           -2.4725    -3.1654     4.5009 H       
  49 H49           -2.5743    -5.6165     4.1402 H       
  50 H50           -0.8094    -5.6564     3.9127 H       
  51 H51           -1.4226    -6.2902     6.2302 H       
  52 H52           -0.4937    -4.7721     6.2077 H       
  53 H53           -2.2586    -4.7322     6.4352 H       
@<TRIPOS>BOND
   1    1    2 2
   2    1   13 1
   3    1    5 1
   4    2    3 1
   5    2   14 1
   6    3    4 2
   7    3    6 1
   8    4    5 1
   9    4    7 1
  10    6   23 1
  11    6   29 1
  12    6   30 1
  13    7    8 ar
  14    7   12 ar
  15    8    9 ar
  16    8   31 1
  17    9   10 ar
  18    9   32 1
  19   10   11 ar
  20   10   33 1
  21   11   12 ar
  22   11   34 1
  23   12   35 1
  24   13   36 1
  25   13   37 1
  26   14   15 1
  27   14   16 2
  28   15   17 ar
  29   15   21 ar
  30   17   18 ar
  31   17   38 1
  32   18   19 ar
  33   18   39 1
  34   19   20 ar
  35   19   22 1
  36   20   21 ar
  37   20   40 1
  38   21   41 1
  39   23   24 1
  40   23   25 1
  41   24   42 1
  42   24   43 1
  43   24   44 1
  44   25   26 1
  45   25   45 1
  46   25   46 1
  47   26   27 1
  48   26   47 1
  49   26   48 1
  50   27   28 1
  51   27   49 1
  52   27   50 1
  53   28   51 1
  54   28   52 1
  55   28   53 1

#	End of record

