#	Name: ASD01815850
#	Creating user name:	WinNT
#	Creation time:	15. 06. 2019 19:34

#	Modifying user name:	WinNT
#	Modification time:	15. 06. 2019 19:34

#	Program:	/corina/corina34_cracker 3.40 0067  02.08.2006

@<TRIPOS>MOLECULE
ASD01815850
  50   55    0    0    0
SMALL
NO_CHARGES


@<TRIPOS>ATOM
   1 C1            -0.0167     1.3838     0.0097 C.ar    
   2 C2             0.0021    -0.0041     0.0020 C.ar    
   3 C3            -1.1856    -0.7101     0.0100 C.ar    
   4 C4            -2.3928    -0.0367     0.0257 C.ar    
   5 C5            -2.4172     1.3462     0.0333 C.ar    
   6 C6            -1.2326     2.0595     0.0307 C.ar    
   7 F7            -1.2561     3.4102     0.0386 F       
   8 N8             1.1856     2.1023     0.0020 N.am    
   9 C9             1.8868     2.4210    -1.1072 C.2     
  10 N10            1.8272     2.5965     1.1404 N.2     
  11 C11            2.9244     3.2222     0.8253 C.2     
  12 C12            3.0578     3.1629    -0.6492 C.2     
  13 O13            1.5997     2.1441    -2.2604 O.2     
  14 C14            3.9849     3.9284     1.5663 C.ar    
  15 C15            5.0461     4.4922     0.8342 C.ar    
  16 N16            5.0896     4.3855    -0.5395 N.pl3   
  17 C17            4.1403     3.7530    -1.2518 C.2     
  18 C18            3.9670     4.0525     2.9496 C.ar    
  19 N19            4.9385     4.6947     3.5692 N.ar    
  20 C20            5.9503     5.2365     2.9150 C.ar    
  21 C21            6.0449     5.1583     1.5413 C.ar    
  22 C22            6.2163     4.9901    -1.2544 C.3     
  23 C23            7.3293     3.9821    -1.3821 C.ar    
  24 C24            7.3796     3.1454    -2.4819 C.ar    
  25 C25            8.3982     2.2202    -2.6015 C.ar    
  26 C26            9.3724     2.1312    -1.6163 C.ar    
  27 C27            9.3195     2.9730    -0.5135 C.ar    
  28 C28            8.3013     3.8997    -0.4021 C.ar    
  29 N29           10.4072     1.1930    -1.7347 N.pl3   
  30 C30           11.4139     1.0029    -0.8521 C.2     
  31 C31           12.1988     0.0098    -1.3304 C.2     
  32 C32           11.6548    -0.4220    -2.5451 C.2     
  33 N33           10.5781     0.2821    -2.7852 N.2     
  34 H34            0.9444    -0.5317    -0.0105 H       
  35 H35           -1.1707    -1.7900     0.0037 H       
  36 H36           -3.3193    -0.5918     0.0316 H       
  37 H37           -3.3620     1.8692     0.0452 H       
  38 H38            4.2342     3.7051    -2.3267 H       
  39 H39            3.1561     3.6226     3.5189 H       
  40 H40            6.7209     5.7525     3.4685 H       
  41 H41            6.8789     5.6069     1.0221 H       
  42 H42            5.8919     5.3009    -2.2475 H       
  43 H43            6.5741     5.8582    -0.7008 H       
  44 H44            6.6214     3.2151    -3.2479 H       
  45 H45            8.4365     1.5665    -3.4603 H       
  46 H46           10.0757     2.9058     0.2546 H       
  47 H47            8.2596     4.5548     0.4555 H       
  48 H48           11.5648     1.5465     0.0689 H       
  49 H49           13.0881    -0.3807    -0.8580 H       
  50 H50           12.0525    -1.2048    -3.1741 H       
@<TRIPOS>BOND
   1    1    2 ar
   2    1    8 1
   3    1    6 ar
   4    2    3 ar
   5    2   34 1
   6    3    4 ar
   7    3   35 1
   8    4    5 ar
   9    4   36 1
  10    5    6 ar
  11    5   37 1
  12    6    7 1
  13    8    9 am
  14    8   10 1
  15    9   13 2
  16    9   12 1
  17   10   11 2
  18   11   12 1
  19   11   14 1
  20   12   17 2
  21   14   15 ar
  22   14   18 ar
  23   15   16 1
  24   15   21 ar
  25   16   17 1
  26   16   22 1
  27   17   38 1
  28   18   19 ar
  29   18   39 1
  30   19   20 ar
  31   20   21 ar
  32   20   40 1
  33   21   41 1
  34   22   23 1
  35   22   42 1
  36   22   43 1
  37   23   24 ar
  38   23   28 ar
  39   24   25 ar
  40   24   44 1
  41   25   26 ar
  42   25   45 1
  43   26   27 ar
  44   26   29 1
  45   27   28 ar
  46   27   46 1
  47   28   47 1
  48   29   30 1
  49   29   33 1
  50   30   31 2
  51   30   48 1
  52   31   32 1
  53   31   49 1
  54   32   33 2
  55   32   50 1

#	End of record

