#	Name: ASD01870491
#	Creating user name:	WinNT
#	Creation time:	15. 06. 2019 19:39

#	Modifying user name:	WinNT
#	Modification time:	15. 06. 2019 19:39

#	Program:	/corina/corina34_cracker 3.40 0067  02.08.2006

@<TRIPOS>MOLECULE
ASD01870491
  39   42    0    0    0
SMALL
NO_CHARGES


@<TRIPOS>ATOM
   1 C1            -0.0303     1.3984    -0.2323 C.ar    
   2 C2            -0.0273     0.0161    -0.1047 C.ar    
   3 C3             1.1513    -0.6618     0.1400 C.ar    
   4 C4             2.3478     0.0285     0.2616 C.ar    
   5 C5             2.3613     1.4081     0.1368 C.ar    
   6 C6             1.1593     2.1016    -0.1129 C.ar    
   7 C7             3.4166     2.4407     0.2059 C.2     
   8 N8             2.8510     3.6451     0.0081 N.am    
   9 C9             1.5250     3.5308    -0.1873 C.2     
  10 O10            0.7567     4.4494    -0.3906 O.2     
  11 O11            4.5967     2.2361     0.4079 O.2     
  12 C12            3.5522     4.8609     0.0053 C.ar    
  13 C13            4.0821     5.3537    -1.1794 C.ar    
  14 C14            4.7718     6.5495    -1.1826 C.ar    
  15 C15            4.9357     7.2604    -0.0005 C.ar    
  16 C16            4.4055     6.7682     1.1847 C.ar    
  17 C17            3.7110     5.5738     1.1870 C.ar    
  18 Cl18           3.0427     4.9609     2.6673 Cl      
  19 N19            5.6356     8.4728    -0.0041 N.am    
  20 C20            6.4080     8.8081     1.0483 C.2     
  21 C21            7.2241    10.0328     1.0020 C.2     
  22 O22            6.4309     8.0990     2.0364 O.2     
  23 C23            8.0207    10.4293     2.0201 C.2     
  24 S24            8.7948    11.8882     1.5790 S.3     
  25 C25            8.0109    11.8848     0.0618 C.2     
  26 N26            7.2510    10.8530    -0.0519 N.2     
  27 C27            8.1967     9.7043     3.3295 C.3     
  28 Cl28          -1.5145     2.2421    -0.5468 Cl      
  29 H29           -0.9527    -0.5330    -0.1970 H       
  30 H30            1.1407    -1.7373     0.2376 H       
  31 H31            3.2656    -0.5074     0.4532 H       
  32 H32            3.9549     4.8014    -2.0987 H       
  33 H33            5.1845     6.9322    -2.1043 H       
  34 H34            4.5331     7.3206     2.1040 H       
  35 H35            5.5647     9.0715    -0.7640 H       
  36 H36            8.1386    12.6414    -0.6982 H       
  37 H37            9.0188     8.9937     3.2437 H       
  38 H38            8.4197    10.4246     4.1165 H       
  39 H39            7.2789     9.1701     3.5752 H       
@<TRIPOS>BOND
   1    1    2 ar
   2    1    6 ar
   3    1   28 1
   4    2    3 ar
   5    2   29 1
   6    3    4 ar
   7    3   30 1
   8    4    5 ar
   9    4   31 1
  10    5    7 1
  11    5    6 ar
  12    6    9 1
  13    7    8 am
  14    7   11 2
  15    8    9 am
  16    8   12 1
  17    9   10 2
  18   12   13 ar
  19   12   17 ar
  20   13   14 ar
  21   13   32 1
  22   14   15 ar
  23   14   33 1
  24   15   16 ar
  25   15   19 1
  26   16   17 ar
  27   16   34 1
  28   17   18 1
  29   19   20 am
  30   19   35 1
  31   20   21 1
  32   20   22 2
  33   21   23 2
  34   21   26 1
  35   23   24 1
  36   23   27 1
  37   24   25 1
  38   25   26 2
  39   25   36 1
  40   27   37 1
  41   27   38 1
  42   27   39 1

#	End of record

