#	Name: ASD01209150
#	Creating user name:	WinNT
#	Creation time:	15. 06. 2019 19:11

#	Modifying user name:	WinNT
#	Modification time:	15. 06. 2019 19:11

#	Program:	/corina/corina34_cracker 3.40 0067  02.08.2006

@<TRIPOS>MOLECULE
ASD01209150
  72   74    0    0    0
SMALL
NO_CHARGES


@<TRIPOS>ATOM
   1 O1             0.4356     0.6857    -0.3712 O.3     
   2 O2             2.8151     0.9476     0.7159 O.3     
   3 C3             2.4944     5.7177    -8.9862 C.ar    
   4 C4             1.5702     6.0715    -9.9582 C.ar    
   5 C5             0.2140     6.0710    -9.6649 C.ar    
   6 C6            -0.2226     5.7159    -8.3995 C.ar    
   7 C7             0.7037     5.3592    -7.4185 C.ar    
   8 C8             2.0661     5.3565    -7.7193 C.ar    
   9 O9             3.8216     5.7199    -9.2788 O.3     
  10 C10            4.7239     5.4607    -8.2015 C.3     
  11 O11           -0.6872     6.4189   -10.6208 O.3     
  12 C12           -0.1643     6.8834   -11.8670 C.3     
  13 C13           -1.1980     7.7800   -12.5514 C.3     
  14 C14            0.2423     4.9800    -6.0663 C.2     
  15 N15            1.1386     4.6358    -5.1204 N.am    
  16 O16           -0.9454     4.9786    -5.8075 O.2     
  17 C17            0.7051     4.2795    -3.8498 C.2     
  18 P18            1.8768     1.3886    -0.5159 P.3     
  19 O19            2.5046     0.9694    -1.7889 O.2     
  20 C20           -1.4146     9.0200   -11.7229 C.ar    
  21 C21           -0.6374    10.1420   -11.9419 C.ar    
  22 C22            0.1481     5.6862   -12.7670 C.3     
  23 C23            1.6731     3.2001    -0.5064 C.3     
  24 N24            1.4808     3.9331    -2.8705 N.2     
  25 S25           -0.9287     4.2410    -3.3475 S.3     
  26 C26           -0.4332     3.7171    -1.7401 C.2     
  27 C27            0.8981     3.6249    -1.7271 C.2     
  28 C28            0.2481    -0.7288    -0.4498 C.3     
  29 C29           -1.2356    -1.0573    -0.2718 C.3     
  30 C30            3.2485    -0.3986     0.9210 C.3     
  31 C31            4.1214    -0.4676     2.1757 C.3     
  32 C32            6.0828     6.0917    -8.5114 C.3     
  33 F33            5.9511     7.4837    -8.5570 F       
  34 C34            4.8908     3.9497    -8.0283 C.3     
  35 C35           -2.3941     9.0374   -10.7476 C.ar    
  36 C36           -2.5927    10.1748    -9.9876 C.ar    
  37 C37           -1.8115    11.2948   -10.2025 C.ar    
  38 C38           -0.8360    11.2795   -11.1819 C.ar    
  39 H39            1.9073     6.3486   -10.9462 H       
  40 H40           -1.2783     5.7164    -8.1718 H       
  41 H41            2.7863     5.0808    -6.9631 H       
  42 H42            4.3251     5.8899    -7.2823 H       
  43 H43            0.7485     7.4519   -11.6888 H       
  44 H44           -0.8364     8.0622   -13.5402 H       
  45 H45           -2.1395     7.2396   -12.6495 H       
  46 H46            2.0863     4.6370    -5.3269 H       
  47 H47            0.1252    10.1299   -12.7066 H       
  48 H48            0.8845     5.0475   -12.2794 H       
  49 H49           -0.7647     5.1177   -12.9453 H       
  50 H50            0.5469     6.0405   -13.7175 H       
  51 H51            1.1313     3.5001     0.3905 H       
  52 H52            2.6537     3.6761    -0.5149 H       
  53 H53           -1.0915     3.5104    -0.9093 H       
  54 H54            0.5853    -1.0865    -1.4226 H       
  55 H55            0.8250    -1.2160     0.3364 H       
  56 H56           -1.5727    -0.6995     0.7011 H       
  57 H57           -1.8124    -0.5701    -1.0579 H       
  58 H58           -1.3786    -2.1362    -0.3317 H       
  59 H59            2.3798    -1.0448     1.0467 H       
  60 H60            3.8260    -0.7298     0.0580 H       
  61 H61            4.9901     0.1786     2.0500 H       
  62 H62            3.5439    -0.1364     3.0388 H       
  63 H63            4.4521    -1.4944     2.3322 H       
  64 H64            6.7958     5.8195    -7.7330 H       
  65 H65            6.4407     5.7288    -9.4749 H       
  66 H66            5.5790     3.7520    -7.2066 H       
  67 H67            3.9226     3.5002    -7.8076 H       
  68 H68            5.2895     3.5205    -8.9475 H       
  69 H69           -3.0045     8.1623   -10.5797 H       
  70 H70           -3.3585    10.1886    -9.2262 H       
  71 H71           -1.9669    12.1836    -9.6090 H       
  72 H72           -0.2256    12.1545   -11.3498 H       
@<TRIPOS>BOND
   1    1   28 1
   2    1   18 1
   3    2   30 1
   4    2   18 1
   5    3    4 ar
   6    3    9 1
   7    3    8 ar
   8    4    5 ar
   9    4   39 1
  10    5    6 ar
  11    5   11 1
  12    6    7 ar
  13    6   40 1
  14    7    8 ar
  15    7   14 1
  16    8   41 1
  17    9   10 1
  18   10   32 1
  19   10   34 1
  20   10   42 1
  21   11   12 1
  22   12   13 1
  23   12   22 1
  24   12   43 1
  25   13   20 1
  26   13   44 1
  27   13   45 1
  28   14   15 am
  29   14   16 2
  30   15   17 1
  31   15   46 1
  32   17   24 2
  33   17   25 1
  34   18   19 2
  35   18   23 1
  36   20   21 ar
  37   20   35 ar
  38   21   38 ar
  39   21   47 1
  40   22   48 1
  41   22   49 1
  42   22   50 1
  43   23   27 1
  44   23   51 1
  45   23   52 1
  46   24   27 1
  47   25   26 1
  48   26   27 2
  49   26   53 1
  50   28   29 1
  51   28   54 1
  52   28   55 1
  53   29   56 1
  54   29   57 1
  55   29   58 1
  56   30   31 1
  57   30   59 1
  58   30   60 1
  59   31   61 1
  60   31   62 1
  61   31   63 1
  62   32   33 1
  63   32   64 1
  64   32   65 1
  65   34   66 1
  66   34   67 1
  67   34   68 1
  68   35   36 ar
  69   35   69 1
  70   36   37 ar
  71   36   70 1
  72   37   38 ar
  73   37   71 1
  74   38   72 1

#	End of record

