#	Name: ASD01882833
#	Creating user name:	WinNT
#	Creation time:	15. 06. 2019 19:45

#	Modifying user name:	WinNT
#	Modification time:	15. 06. 2019 19:45

#	Program:	/corina/corina34_cracker 3.40 0067  02.08.2006

@<TRIPOS>MOLECULE
ASD01882833
  33   34    0    0    0
SMALL
NO_CHARGES


@<TRIPOS>ATOM
   1 O1            -0.0173     1.4248     0.0099 O.3     
   2 C2             0.0021    -0.0041     0.0020 C.3     
   3 C3             1.2831     0.8325    -0.0057 C.3     
   4 C4            -0.3928    -0.7153    -1.2938 C.3     
   5 O5            -1.5767    -1.4845    -1.0733 O.3     
   6 C6            -2.0647    -2.1832    -2.1319 C.ar    
   7 C7            -3.2110    -2.9513    -1.9886 C.ar    
   8 C8            -3.7050    -3.6606    -3.0662 C.ar    
   9 C9            -3.0579    -3.6055    -4.2868 C.ar    
  10 C10           -1.9149    -2.8411    -4.4321 C.ar    
  11 C11           -1.4204    -2.1250    -3.3592 C.ar    
  12 C12           -3.5989    -4.3803    -5.4607 C.3     
  13 C13           -5.0198    -3.9068    -5.7731 C.3     
  14 C14           -2.7045    -4.1490    -6.6803 C.3     
  15 C15           -3.6216    -5.8719    -5.1204 C.3     
  16 H16           -0.2616    -0.5207     0.9249 H       
  17 H17            1.8523     0.8812    -0.9340 H       
  18 H18            1.8699     0.8713     0.9120 H       
  19 H19           -0.5799     0.0247    -2.0719 H       
  20 H20            0.4162    -1.3753    -1.6071 H       
  21 H21           -3.7167    -2.9949    -1.0352 H       
  22 H22           -4.5972    -4.2590    -2.9550 H       
  23 H23           -1.4108    -2.8003    -5.3864 H       
  24 H24           -0.5304    -1.5242    -3.4744 H       
  25 H25           -5.0036    -2.8442    -6.0154 H       
  26 H26           -5.4112    -4.4672    -6.6221 H       
  27 H27           -5.6570    -4.0716    -4.9042 H       
  28 H28           -1.6922    -4.4864    -6.4577 H       
  29 H29           -3.0959    -4.7094    -7.5293 H       
  30 H30           -2.6883    -3.0864    -6.9227 H       
  31 H31           -4.2588    -6.0367    -4.2516 H       
  32 H32           -4.0130    -6.4323    -5.9695 H       
  33 H33           -2.6093    -6.2092    -4.8979 H       
@<TRIPOS>BOND
   1    1    2 1
   2    1    3 1
   3    2    3 1
   4    2    4 1
   5    2   16 1
   6    3   17 1
   7    3   18 1
   8    4    5 1
   9    4   19 1
  10    4   20 1
  11    5    6 1
  12    6    7 ar
  13    6   11 ar
  14    7    8 ar
  15    7   21 1
  16    8    9 ar
  17    8   22 1
  18    9   10 ar
  19    9   12 1
  20   10   11 ar
  21   10   23 1
  22   11   24 1
  23   12   13 1
  24   12   15 1
  25   12   14 1
  26   13   25 1
  27   13   26 1
  28   13   27 1
  29   14   28 1
  30   14   29 1
  31   14   30 1
  32   15   31 1
  33   15   32 1
  34   15   33 1

#	End of record

