#	Name: ASD02590060
#	Creating user name:	WinNT
#	Creation time:	15. 06. 2019 20:25

#	Modifying user name:	WinNT
#	Modification time:	15. 06. 2019 20:25

#	Program:	/corina/corina34_cracker 3.40 0067  02.08.2006

@<TRIPOS>MOLECULE
ASD02590060
  69   74    0    0    0
SMALL
NO_CHARGES


@<TRIPOS>ATOM
   1 C1            -0.0168     1.3882     0.0097 C.ar    
   2 C2             0.0021    -0.0041     0.0020 C.ar    
   3 C3             1.1863     2.0841     0.0019 C.ar    
   4 N4             2.3353     1.4436    -0.0129 N.ar    
   5 C5             2.3939     0.1169    -0.0206 C.ar    
   6 C6             1.2265    -0.6467    -0.0131 C.ar    
   7 C7             3.7099    -0.5577    -0.0373 C.2     
   8 N8             4.9210     0.0796    -0.0459 N.pl3   
   9 C9             5.8977    -0.8993    -0.0600 C.ar    
  10 C10            5.2180    -2.1304    -0.0594 C.ar    
  11 N11            3.8915    -1.8557    -0.0404 N.2     
  12 C12            7.2857    -0.8714    -0.0729 C.ar    
  13 C13            7.9974    -2.0507    -0.0850 C.ar    
  14 C14            7.3322    -3.2765    -0.0844 C.ar    
  15 C15            5.9508    -3.3220    -0.0722 C.ar    
  16 O16           -4.4120     4.3793     3.7762 O.3     
  17 C17           -4.8151     4.0938     5.0415 C.ar    
  18 C18           -4.1626     4.6610     6.1330 C.ar    
  19 C19           -4.6059     4.3437     7.4039 C.ar    
  20 C20           -5.6850     3.4715     7.5485 C.ar    
  21 N21           -6.2819     2.9504     6.4828 N.ar    
  22 C22           -5.8871     3.2368     5.2609 C.ar    
  23 C23           -6.1688     3.1234     8.9020 C.2     
  24 N24           -5.6609     3.5741    10.0229 N.2     
  25 C25           -6.3422     3.0558    11.0730 C.ar    
  26 C26           -7.3456     2.2225    10.5473 C.ar    
  27 N27           -7.2178     2.2870     9.1718 N.pl3   
  28 C28           -6.2226     3.1999    12.4594 C.ar    
  29 C29           -7.0902     2.5230    13.2958 C.ar    
  30 C30           -8.0822     1.6988    12.7650 C.ar    
  31 C31           -8.2091     1.5500    11.4015 C.ar    
  32 O32           -1.1979     2.0589     0.0189 O.3     
  33 C33           -1.1334     3.4864     0.0264 C.3     
  34 C34           -5.1324     3.7577     2.7100 C.3     
  35 C35           -4.5385     4.1958     1.3698 C.3     
  36 O36           -3.2008     3.7056     1.2585 O.3     
  37 C37           -2.5513     4.0610     0.0363 C.3     
  38 S38            8.2580    -4.7757    -0.1006 S.3     
  39 C39            9.9762    -4.1941    -0.1144 C.3     
  40 S40           -6.9418     2.7019    15.0424 S.3     
  41 C41           -8.2714     1.6428    15.6756 C.3     
  42 H42           -0.9183    -0.5691     0.0081 H       
  43 H43            1.1777     3.1641     0.0078 H       
  44 H44            1.2782    -1.7254    -0.0198 H       
  45 H45            5.0669     1.0385    -0.0430 H       
  46 H46            7.8071     0.0744    -0.0737 H       
  47 H47            9.0770    -2.0260    -0.0953 H       
  48 H48            5.4394    -4.2733    -0.0715 H       
  49 H49           -3.3293     5.3331     5.9904 H       
  50 H50           -4.1229     4.7652     8.2730 H       
  51 H51           -6.3971     2.7941     4.4181 H       
  52 H52           -7.7656     1.8218     8.5203 H       
  53 H53           -5.4555     3.8369    12.8743 H       
  54 H54           -8.7551     1.1742    13.4271 H       
  55 H55           -8.9797     0.9104    10.9971 H       
  56 H56           -0.5994     3.8213     0.9157 H       
  57 H57           -0.6079     3.8310    -0.8642 H       
  58 H58           -5.0573     2.6744     2.8039 H       
  59 H59           -6.1800     4.0548     2.7577 H       
  60 H60           -5.1418     3.7934     0.5561 H       
  61 H61           -4.5324     5.2844     1.3136 H       
  62 H62           -2.5040     5.1467    -0.0476 H       
  63 H63           -3.1135     3.6558    -0.8051 H       
  64 H64           10.1470    -3.5866    -1.0032 H       
  65 H65           10.1642    -3.5952     0.7767 H       
  66 H66           10.6497    -5.0510    -0.1251 H       
  67 H67           -9.2301     1.9984    15.2980 H       
  68 H68           -8.1082     0.6173    15.3441 H       
  69 H69           -8.2750     1.6763    16.7650 H       
@<TRIPOS>BOND
   1    1    2 ar
   2    1    3 ar
   3    1   32 1
   4    2    6 ar
   5    2   42 1
   6    3    4 ar
   7    3   43 1
   8    4    5 ar
   9    5    6 ar
  10    5    7 1
  11    6   44 1
  12    7    8 1
  13    7   11 2
  14    8    9 1
  15    8   45 1
  16    9   10 ar
  17    9   12 ar
  18   10   11 1
  19   10   15 ar
  20   12   13 ar
  21   12   46 1
  22   13   14 ar
  23   13   47 1
  24   14   15 ar
  25   14   38 1
  26   15   48 1
  27   16   17 1
  28   16   34 1
  29   17   18 ar
  30   17   22 ar
  31   18   19 ar
  32   18   49 1
  33   19   20 ar
  34   19   50 1
  35   20   21 ar
  36   20   23 1
  37   21   22 ar
  38   22   51 1
  39   23   24 2
  40   23   27 1
  41   24   25 1
  42   25   26 ar
  43   25   28 ar
  44   26   27 1
  45   26   31 ar
  46   27   52 1
  47   28   29 ar
  48   28   53 1
  49   29   30 ar
  50   29   40 1
  51   30   31 ar
  52   30   54 1
  53   31   55 1
  54   32   33 1
  55   33   37 1
  56   33   56 1
  57   33   57 1
  58   34   35 1
  59   34   58 1
  60   34   59 1
  61   35   36 1
  62   35   60 1
  63   35   61 1
  64   36   37 1
  65   37   62 1
  66   37   63 1
  67   38   39 1
  68   39   64 1
  69   39   65 1
  70   39   66 1
  71   40   41 1
  72   41   67 1
  73   41   68 1
  74   41   69 1

#	End of record

