#	Name: ASD02690063
#	Creating user name:	WinNT
#	Creation time:	15. 06. 2019 20:26

#	Modifying user name:	WinNT
#	Modification time:	15. 06. 2019 20:26

#	Program:	/corina/corina34_cracker 3.40 0067  02.08.2006

@<TRIPOS>MOLECULE
ASD02690063
  62   64    0    0    0
SMALL
NO_CHARGES


@<TRIPOS>ATOM
   1 C1            -0.0321     1.1768    -0.0402 C.2     
   2 O2            -0.0088    -0.0338     0.0235 O.2     
   3 C3             1.2147     3.3301    -0.1976 C.ar    
   4 C4             1.2272     1.9337    -0.1238 C.ar    
   5 C5             2.4614     1.2672    -0.1303 C.ar    
   6 C6             3.6152     2.0260    -0.2100 C.ar    
   7 C7             3.5165     3.4043    -0.2799 C.ar    
   8 N8             2.3417     4.0058    -0.2719 N.ar    
   9 C9             4.7721     4.2331    -0.3663 C.3     
  10 N10           -4.0827     2.0909     0.8777 N.3     
  11 C11           -3.7948     1.7041    -0.5093 C.3     
  12 C12           -2.4485     0.9789    -0.5691 C.3     
  13 C13           -1.3509     1.9061    -0.0398 C.3     
  14 C14           -1.6992     2.3329     1.3888 C.3     
  15 C15           -3.0673     3.0188     1.3918 C.3     
  16 C16           -6.4480     1.7266     0.3532 C.3     
  17 C17           -5.4292     2.6662     0.9951 C.3     
  18 C18           -5.7921     2.8335     2.4754 C.3     
  19 C19           -7.0816     3.6471     2.5660 C.3     
  20 C20           -8.1434     3.0583     1.6741 C.ar    
  21 C21           -9.4619     3.4317     1.9055 C.ar    
  22 C22          -10.4830     2.9334     1.1228 C.ar    
  23 C23          -10.1965     2.0540     0.0968 C.ar    
  24 C24           -8.8835     1.6767    -0.1374 C.ar    
  25 C25           -7.8518     2.1803     0.6566 C.ar    
  26 O26           -5.9903     1.5496     3.0706 O.3     
  27 N27           -8.5910     0.7870    -1.1736 N.pl3   
  28 H28            0.2725     3.8580    -0.1982 H       
  29 H29            2.5095     0.1897    -0.0743 H       
  30 H30            4.5833     1.5475    -0.2171 H       
  31 H31            5.0403     4.3784    -1.4127 H       
  32 H32            4.6009     5.2020     0.1028 H       
  33 H33            5.5833     3.7184     0.1486 H       
  34 H34           -4.5806     1.0416    -0.8722 H       
  35 H35           -3.7548     2.5962    -1.1343 H       
  36 H36           -2.4922     0.0792     0.0447 H       
  37 H37           -2.2278     0.7057    -1.6010 H       
  38 H38           -1.2799     2.7875    -0.6772 H       
  39 H39           -1.7311     1.4545     2.0335 H       
  40 H40           -0.9433     3.0271     1.7558 H       
  41 H41           -3.0307     3.9048     0.7579 H       
  42 H42           -3.3247     3.3112     2.4099 H       
  43 H43           -6.2985     1.7179    -0.7265 H       
  44 H44           -6.3035     0.7192     0.7435 H       
  45 H45           -5.4590     3.6355     0.4974 H       
  46 H46           -4.9895     3.3588     2.9932 H       
  47 H47           -7.4362     3.6450     3.5966 H       
  48 H48           -6.8815     4.6732     2.2574 H       
  49 H49           -9.6897     4.1190     2.7068 H       
  50 H50          -11.5041     3.2299     1.3121 H       
  51 H51          -10.9919     1.6620    -0.5198 H       
  52 H52           -6.2231     1.5825     4.0085 H       
  53 H53           -9.3058     0.4351    -1.7269 H       
  54 H54           -7.6731     0.5211    -1.3400 H       
  55 C55           11.7575    13.3191     9.0363 C.2     
  56 C56           11.7778    11.8250     9.0281 C.2     
  57 O57           12.7992    13.9396     9.0297 O.2     
  58 O58           10.5833    13.9759     9.0455 O.3     
  59 O59           10.7361    11.2045     9.0347 O.2     
  60 O60           12.9520    11.1682     9.0134 O.3     
  61 H61           10.6208    14.9422     9.0505 H       
  62 H62           12.9145    10.2020     9.0085 H       
@<TRIPOS>BOND
   1    1    2 2
   2    1    4 1
   3    1   13 1
   4    3    4 ar
   5    3    8 ar
   6    3   28 1
   7    4    5 ar
   8    5    6 ar
   9    5   29 1
  10    6    7 ar
  11    6   30 1
  12    7    8 ar
  13    7    9 1
  14    9   31 1
  15    9   32 1
  16    9   33 1
  17   10   11 1
  18   10   15 1
  19   10   17 1
  20   11   12 1
  21   11   34 1
  22   11   35 1
  23   12   13 1
  24   12   36 1
  25   12   37 1
  26   13   14 1
  27   13   38 1
  28   14   15 1
  29   14   39 1
  30   14   40 1
  31   15   41 1
  32   15   42 1
  33   16   17 1
  34   16   25 1
  35   16   43 1
  36   16   44 1
  37   17   18 1
  38   17   45 1
  39   18   19 1
  40   18   26 1
  41   18   46 1
  42   19   20 1
  43   19   47 1
  44   19   48 1
  45   20   21 ar
  46   20   25 ar
  47   21   22 ar
  48   21   49 1
  49   22   23 ar
  50   22   50 1
  51   23   24 ar
  52   23   51 1
  53   24   25 ar
  54   24   27 1
  55   26   52 1
  56   27   53 1
  57   27   54 1
  58   55   56 1
  59   55   57 2
  60   55   58 1
  61   56   59 2
  62   56   60 1
  63   58   61 1
  64   60   62 1

#	End of record

