#	Name: ASD05430588
#	Creating user name:	WinNT
#	Creation time:	15. 06. 2019 21:00

#	Modifying user name:	WinNT
#	Modification time:	15. 06. 2019 21:00

#	Program:	/corina/corina34_cracker 3.40 0067  02.08.2006

@<TRIPOS>MOLECULE
ASD05430588
  36   36    0    0    0
SMALL
NO_CHARGES


@<TRIPOS>ATOM
   1 C1            -0.0167     1.3829     0.0096 C.ar    
   2 C2             0.0021    -0.0041     0.0020 C.ar    
   3 C3             1.1767     2.0906     0.0021 C.ar    
   4 C4             2.3801     1.4129    -0.0131 C.ar    
   5 C5             2.3962     0.0301    -0.0207 C.ar    
   6 C6             1.2085    -0.6774    -0.0131 C.ar    
   7 C7             1.1599     3.5975     0.0098 C.3     
   8 C8             1.2297    -2.1842    -0.0214 C.3     
   9 C9             1.9460    -2.6772    -1.2802 C.3     
  10 C10            1.9699    -2.6907     1.2181 C.3     
  11 C11            1.8871     4.1092     1.2549 C.3     
  12 C12            1.8637     4.1218    -1.2434 C.3     
  13 O13           -1.2021     2.0475     0.0189 O.3     
  14 S14           -1.7838     2.3694     1.5399 Du      
  15 F15           -3.2499     1.8875     1.0812 F       
  16 F16           -0.3177     2.8513     1.9986 F       
  17 F17           -1.4313     0.8653     1.9931 F       
  18 F18           -2.1364     3.8735     1.0867 F       
  19 F19           -2.3481     2.6817     3.0151 F       
  20 H20           -0.9255    -0.5572     0.0083 H       
  21 H21            3.3093     1.9633    -0.0194 H       
  22 H22            3.3382    -0.4980    -0.0328 H       
  23 H23            0.1283     3.9493     0.0212 H       
  24 H24            0.2073    -2.5620    -0.0137 H       
  25 H25            2.9685    -2.2995    -1.2879 H       
  26 H26            1.9614    -3.7671    -1.2862 H       
  27 H27            1.4187    -2.3164    -2.1633 H       
  28 H28            2.9923    -2.3129     1.2104 H       
  29 H29            1.4595    -2.3394     2.1149 H       
  30 H30            1.9852    -3.7805     1.2121 H       
  31 H31            2.9187     3.7574     1.2435 H       
  32 H32            1.8750     5.1992     1.2605 H       
  33 H33            1.3857     3.7357     2.1477 H       
  34 H34            1.3457     3.7573    -2.1305 H       
  35 H35            1.8516     5.2118    -1.2378 H       
  36 H36            2.8953     3.7700    -1.2549 H       
@<TRIPOS>BOND
   1    1    2 ar
   2    1    3 ar
   3    1   13 1
   4    2    6 ar
   5    2   20 1
   6    3    4 ar
   7    3    7 1
   8    4    5 ar
   9    4   21 1
  10    5    6 ar
  11    5   22 1
  12    6    8 1
  13    7   11 1
  14    7   12 1
  15    7   23 1
  16    8    9 1
  17    8   10 1
  18    8   24 1
  19    9   25 1
  20    9   26 1
  21    9   27 1
  22   10   28 1
  23   10   29 1
  24   10   30 1
  25   11   31 1
  26   11   32 1
  27   11   33 1
  28   12   34 1
  29   12   35 1
  30   12   36 1
  31   13   14 1
  32   14   15 1
  33   14   16 1
  34   14   17 1
  35   14   18 1
  36   14   19 1

#	End of record

