#	Name: ASD01028119
#	Creating user name:	WinNT
#	Creation time:	15. 06. 2019 18:56

#	Modifying user name:	WinNT
#	Modification time:	15. 06. 2019 18:56

#	Program:	/corina/corina34_cracker 3.40 0067  02.08.2006

@<TRIPOS>MOLECULE
ASD01028119
  61   64    0    0    0
SMALL
NO_CHARGES


@<TRIPOS>ATOM
   1 N1            -0.5171     2.2903     0.3813 N.pl3   
   2 C2            -0.2444     0.9321     0.5845 C.ar    
   3 C3            -1.2859     0.0169     0.6549 C.ar    
   4 C4            -2.7110     0.4857     0.5124 C.3     
   5 C5             1.0712     0.4968     0.7106 C.ar    
   6 C6             1.3360    -0.8531     0.9123 C.ar    
   7 C7             0.2884    -1.7592     0.9858 C.ar    
   8 C8            -1.0169    -1.3239     0.8552 C.ar    
   9 O9            -2.5716     6.7853    -0.7475 O.3     
  10 C10           -1.6634     6.3560     0.1690 C.ar    
  11 C11           -1.3167     5.0353     0.2089 C.ar    
  12 C12           -0.3814     4.5922     1.1518 C.ar    
  13 C13            0.0128     3.2358     1.2353 C.ar    
  14 N14            0.9054     2.8971     2.1570 N.ar    
  15 O15            2.2565     1.1747     0.6756 O.3     
  16 C16            3.2245     0.2859     1.2643 C.3     
  17 O17            2.6874    -1.0244     1.0036 O.3     
  18 C18           -1.0889     7.2749     1.0589 C.ar    
  19 C19           -0.1667     6.8644     1.9956 C.ar    
  20 C20            0.1994     5.5141     2.0579 C.ar    
  21 N21            1.0933     5.0636     2.9517 N.ar    
  22 C22            1.4211     3.7935     2.9824 C.ar    
  23 O23           -1.4460     8.5839     0.9963 O.3     
  24 O24           -0.8989     7.4923    -2.0070 O.2     
  25 N25           -2.9863     0.7943    -0.8972 N.3     
  26 C26           -3.2005    -0.4346    -1.6730 C.3     
  27 C27           -4.1336     1.7030    -1.0229 C.3     
  28 C28           -4.3683     2.0270    -2.4997 C.3     
  29 C29           -5.3622     1.0427    -0.4521 C.2     
  30 O30           -6.5189     1.7205    -0.3858 O.3     
  31 O31           -5.3060    -0.0967    -0.0542 O.2     
  32 C32           -7.6611     1.0217     0.1757 C.3     
  33 C33           -2.0884     7.3230    -1.8786 C.2     
  34 C34           -3.0295     7.7157    -2.9882 C.3     
  35 C35           -0.8259     9.4708     1.9295 C.3     
  36 H36           -1.0753     2.5669    -0.3623 H       
  37 H37           -3.3873    -0.2990     0.8513 H       
  38 H38           -2.8612     1.3807     1.1162 H       
  39 H39            0.4933    -2.8079     1.1426 H       
  40 H40           -1.8293    -2.0331     0.9136 H       
  41 H41           -1.7621     4.3362    -0.4834 H       
  42 H42            4.1956     0.4045     0.7837 H       
  43 H43            3.3029     0.4613     2.3372 H       
  44 H44            0.2716     7.5788     2.6767 H       
  45 H45            2.1437     3.4648     3.7147 H       
  46 H46           -4.1073    -0.9299    -1.3260 H       
  47 H47           -3.3046    -0.1842    -2.7288 H       
  48 H48           -2.3486    -1.1014    -1.5400 H       
  49 H49           -3.9292     2.6240    -0.4769 H       
  50 H50           -5.2415     2.6723    -2.5958 H       
  51 H51           -3.4935     2.5369    -2.9032 H       
  52 H52           -4.5371     1.1026    -3.0521 H       
  53 H53           -7.8747     0.1356    -0.4221 H       
  54 H54           -7.4371     0.7237     1.2000 H       
  55 H55           -8.5289     1.6812     0.1707 H       
  56 H56           -3.3459     8.7492    -2.8476 H       
  57 H57           -2.5208     7.6187    -3.9473 H       
  58 H58           -3.9024     7.0631    -2.9722 H       
  59 H59           -1.0602     9.1516     2.9450 H       
  60 H60            0.2542     9.4546     1.7836 H       
  61 H61           -1.1986    10.4829     1.7717 H       
@<TRIPOS>BOND
   1    1    2 1
   2    1   13 1
   3    1   36 1
   4    2    3 ar
   5    2    5 ar
   6    3    4 1
   7    3    8 ar
   8    4   25 1
   9    4   37 1
  10    4   38 1
  11    5    6 ar
  12    5   15 1
  13    6    7 ar
  14    6   17 1
  15    7    8 ar
  16    7   39 1
  17    8   40 1
  18    9   10 1
  19    9   33 1
  20   10   11 ar
  21   10   18 ar
  22   11   12 ar
  23   11   41 1
  24   12   13 ar
  25   12   20 ar
  26   13   14 ar
  27   14   22 ar
  28   15   16 1
  29   16   17 1
  30   16   42 1
  31   16   43 1
  32   18   19 ar
  33   18   23 1
  34   19   20 ar
  35   19   44 1
  36   20   21 ar
  37   21   22 ar
  38   22   45 1
  39   23   35 1
  40   24   33 2
  41   25   26 1
  42   25   27 1
  43   26   46 1
  44   26   47 1
  45   26   48 1
  46   27   28 1
  47   27   29 1
  48   27   49 1
  49   28   50 1
  50   28   51 1
  51   28   52 1
  52   29   30 1
  53   29   31 2
  54   30   32 1
  55   32   53 1
  56   32   54 1
  57   32   55 1
  58   33   34 1
  59   34   56 1
  60   34   57 1
  61   34   58 1
  62   35   59 1
  63   35   60 1
  64   35   61 1

#	End of record

