#	Name: ASD00431059
#	Creating user name:	WinNT
#	Creation time:	15. 06. 2019 18:35

#	Modifying user name:	WinNT
#	Modification time:	15. 06. 2019 18:35

#	Program:	/corina/corina34_cracker 3.40 0067  02.08.2006

@<TRIPOS>MOLECULE
ASD00431059
  73   76    0    0    0
SMALL
NO_CHARGES


@<TRIPOS>ATOM
   1 C1            -0.4687     1.8123     0.4533 C.2     
   2 C2            -0.7291     0.3683     0.0438 C.3     
   3 C3            -2.1392     0.1330     0.6230 C.3     
   4 C4            -2.6911     1.5388     0.7668 C.2     
   5 N5            -1.7112     2.4279     0.5138 N.am    
   6 C6            -2.9924    -0.6861    -0.3476 C.3     
   7 O7            -3.8337     1.8179     1.0628 O.2     
   8 C8            -4.3040    -1.0347     0.3077 C.2     
   9 O9            -5.2161    -1.7534    -0.3600 O.3     
  10 O10           -4.5335    -0.6646     1.4392 O.2     
  11 C11           -1.9296     3.8644     0.3266 C.3     
  12 C12           -2.3099     4.1321    -1.1068 C.ar    
  13 C13           -3.6397     4.2873    -1.4515 C.ar    
  14 C14           -1.3280     4.2281    -2.0765 C.ar    
  15 C15           -1.6774     4.4738    -3.3925 C.ar    
  16 C16           -3.0083     4.6233    -3.7377 C.ar    
  17 C17           -3.9893     4.5327    -2.7658 C.ar    
  18 Cl18           0.3423     4.0408    -1.6422 Cl      
  19 Cl19          -3.4476     4.9322    -5.3885 Cl      
  20 C20            0.7099     2.3051     0.7469 C.2     
  21 C21            1.9442     1.4480     0.7526 C.3     
  22 N22            1.6307     0.0496     0.4702 N.am    
  23 C23            0.3111    -0.4983     0.7617 C.3     
  24 C24            2.5715    -0.7466    -0.0750 C.2     
  25 O25            2.3186    -1.9110    -0.3129 O.2     
  26 O26            3.7917    -0.2517    -0.3561 O.3     
  27 C27            4.7550    -1.1665    -0.9422 C.3     
  28 N28           -6.2566    -2.0038     0.2216 N.am    
  29 C29           -7.3287    -1.2039     0.1653 C.2     
  30 C30           -8.4425    -1.8052     0.9945 C.3     
  31 C31           -7.8217    -3.1050     1.5455 C.3     
  32 C32           -6.4242    -3.1043     0.9652 C.2     
  33 O33           -7.3963    -0.1623    -0.4520 O.2     
  34 O34           -5.5864    -3.9613     1.1503 O.2     
  35 C35            4.2112    -1.6982    -2.2698 C.3     
  36 C36            6.0730    -0.4297    -1.1894 C.3     
  37 C37           -0.6883     0.1805    -1.4509 C.2     
  38 O38           -0.5846     1.1401    -2.1778 O.2     
  39 O39           -0.7671    -1.0528    -1.9748 O.3     
  40 C40           -0.8236    -2.6295    -3.8298 C.3     
  41 C41           -0.7215    -1.1583    -3.4222 C.3     
  42 C42            4.9961    -2.3355     0.0150 C.3     
  43 H43           -2.0795    -0.3586     1.5940 H       
  44 H44           -3.1803    -0.1017    -1.2483 H       
  45 H45           -2.4638    -1.6018    -0.6123 H       
  46 H46           -2.7322     4.1986     0.9840 H       
  47 H47           -1.0142     4.4054     0.5667 H       
  48 H48           -4.4056     4.2163    -0.6935 H       
  49 H49           -0.9111     4.5492    -4.1498 H       
  50 H50           -5.0286     4.6495    -3.0353 H       
  51 H51            0.7961     3.3538     0.9905 H       
  52 H52            2.6369     1.8169    -0.0038 H       
  53 H53            2.4194     1.5153     1.7312 H       
  54 H54            0.1237    -0.4626     1.8349 H       
  55 H55            0.2506    -1.5275     0.4079 H       
  56 H56           -8.7181    -1.1360     1.8096 H       
  57 H57           -9.3079    -2.0279     0.3704 H       
  58 H58           -7.7884    -3.0825     2.6348 H       
  59 H59           -8.3783    -3.9744     1.1956 H       
  60 H60            4.0395    -0.8654    -2.9517 H       
  61 H61            4.9344    -2.3849    -2.7097 H       
  62 H62            3.2723    -2.2231    -2.0937 H       
  63 H63            6.4604    -0.0509    -0.2436 H       
  64 H64            6.7961    -1.1164    -1.6294 H       
  65 H65            5.9013     0.4031    -1.8713 H       
  66 H66           -0.7894    -2.7087    -4.9164 H       
  67 H67            0.0094    -3.1847    -3.3986 H       
  68 H68           -1.7637    -3.0432    -3.4648 H       
  69 H69           -1.5545    -0.6032    -3.8535 H       
  70 H70            0.2186    -0.7446    -3.7872 H       
  71 H71            4.0571    -2.8604     0.1911 H       
  72 H72            5.7192    -3.0222    -0.4249 H       
  73 H73            5.3835    -1.9567     0.9608 H       
@<TRIPOS>BOND
   1    1    2 1
   2    1   20 2
   3    1    5 1
   4    2   37 1
   5    2    3 1
   6    2   23 1
   7    3    4 1
   8    3    6 1
   9    3   43 1
  10    4    5 am
  11    4    7 2
  12    5   11 1
  13    6    8 1
  14    6   44 1
  15    6   45 1
  16    8    9 1
  17    8   10 2
  18    9   28 1
  19   11   12 1
  20   11   46 1
  21   11   47 1
  22   12   13 ar
  23   12   14 ar
  24   13   17 ar
  25   13   48 1
  26   14   15 ar
  27   14   18 1
  28   15   16 ar
  29   15   49 1
  30   16   17 ar
  31   16   19 1
  32   17   50 1
  33   20   21 1
  34   20   51 1
  35   21   22 1
  36   21   52 1
  37   21   53 1
  38   22   23 1
  39   22   24 am
  40   23   54 1
  41   23   55 1
  42   24   25 2
  43   24   26 1
  44   26   27 1
  45   27   35 1
  46   27   36 1
  47   27   42 1
  48   28   29 am
  49   28   32 am
  50   29   30 1
  51   29   33 2
  52   30   31 1
  53   30   56 1
  54   30   57 1
  55   31   32 1
  56   31   58 1
  57   31   59 1
  58   32   34 2
  59   35   60 1
  60   35   61 1
  61   35   62 1
  62   36   63 1
  63   36   64 1
  64   36   65 1
  65   37   38 2
  66   37   39 1
  67   39   41 1
  68   40   41 1
  69   40   66 1
  70   40   67 1
  71   40   68 1
  72   41   69 1
  73   41   70 1
  74   42   71 1
  75   42   72 1
  76   42   73 1

#	End of record

