#	Name: ASD02038820
#	Creating user name:	WinNT
#	Creation time:	15. 06. 2019 20:17

#	Modifying user name:	WinNT
#	Modification time:	15. 06. 2019 20:17

#	Program:	/corina/corina34_cracker 3.40 0067  02.08.2006

@<TRIPOS>MOLECULE
ASD02038820
  53   56    0    0    0
SMALL
NO_CHARGES


@<TRIPOS>ATOM
   1 C1            -1.2821    -0.8493     0.4637 C.2     
   2 C2            -0.0596    -0.0334     0.3008 C.2     
   3 N3             1.1374    -0.6350     0.1537 N.am    
   4 C4             1.2413    -2.0931     0.2506 C.3     
   5 C5             1.2136    -2.6917    -1.1321 C.ar    
   6 C6             2.3347     0.1692    -0.1032 C.3     
   7 O7            -0.1343     1.1798     0.2997 O.2     
   8 N8            -1.3388    -2.1933     0.4937 N.2     
   9 C9            -2.5946    -2.5256     0.6528 C.2     
  10 N10           -3.3116    -1.3887     0.7208 N.pl3   
  11 N11           -2.5054    -0.3896     0.6106 N.2     
  12 C12            2.3969    -3.0139    -1.7686 C.ar    
  13 C13            2.1242     1.0133    -1.3639 C.3     
  14 C14            3.3478     1.9077    -1.5800 C.3     
  15 O15            3.5475     2.7265    -0.4260 O.3     
  16 C16            3.7963     1.9921     0.7744 C.3     
  17 C17            2.5907     1.1012     1.0851 C.3     
  18 C18           -4.7634    -1.3016     0.8967 C.3     
  19 C19            0.0042    -2.9233    -1.7603 C.ar    
  20 C20           -0.0246    -3.4725    -3.0291 C.ar    
  21 C21            1.1556    -3.7911    -3.6720 C.ar    
  22 C22            2.3707    -3.5649    -3.0413 C.ar    
  23 O23            3.5334    -3.8770    -3.6719 O.3     
  24 C24            3.4306    -4.4351    -4.9834 C.3     
  25 C25            4.8318    -4.7192    -5.5281 C.3     
  26 C26            4.9339    -5.4303    -6.8789 C.3     
  27 C27            5.2780    -3.9435    -6.7691 C.3     
  28 H28            2.1768    -2.3588     0.7429 H       
  29 H29            0.4031    -2.4793     0.8306 H       
  30 H30            3.1925    -0.4885    -0.2439 H       
  31 H31           -2.9850    -3.5305     0.7174 H       
  32 H32            3.3414    -2.8365    -1.2758 H       
  33 H33            1.9962     0.3569    -2.2247 H       
  34 H34            1.2363     1.6339    -1.2427 H       
  35 H35            4.2284     1.2860    -1.7415 H       
  36 H36            3.1853     2.5416    -2.4517 H       
  37 H37            4.6828     1.3716     0.6438 H       
  38 H38            3.9569     2.6868     1.5989 H       
  39 H39            1.7122     1.7235     1.2558 H       
  40 H40            2.7964     0.5076     1.9759 H       
  41 H41           -4.9988    -1.2625     1.9602 H       
  42 H42           -5.1350    -0.4005     0.4089 H       
  43 H43           -5.2364    -2.1770     0.4518 H       
  44 H44           -0.9198    -2.6752    -1.2592 H       
  45 H45           -0.9708    -3.6528    -3.5177 H       
  46 H46            1.1326    -4.2200    -4.6629 H       
  47 H47            2.8626    -5.3645    -4.9392 H       
  48 H48            2.9218    -3.7292    -5.6398 H       
  49 H49            5.5894    -4.9501    -4.7792 H       
  50 H50            5.7590    -6.1288    -7.0189 H       
  51 H51            4.0028    -5.6958    -7.3795 H       
  52 H52            4.5732    -3.2309    -7.1976 H       
  53 H53            6.3293    -3.6639    -6.8369 H       
@<TRIPOS>BOND
   1    1    2 1
   2    1    8 1
   3    1   11 2
   4    2    3 am
   5    2    7 2
   6    3    4 1
   7    3    6 1
   8    4    5 1
   9    4   28 1
  10    4   29 1
  11    5   12 ar
  12    5   19 ar
  13    6   13 1
  14    6   17 1
  15    6   30 1
  16    8    9 2
  17    9   10 1
  18    9   31 1
  19   10   11 1
  20   10   18 1
  21   12   22 ar
  22   12   32 1
  23   13   14 1
  24   13   33 1
  25   13   34 1
  26   14   15 1
  27   14   35 1
  28   14   36 1
  29   15   16 1
  30   16   17 1
  31   16   37 1
  32   16   38 1
  33   17   39 1
  34   17   40 1
  35   18   41 1
  36   18   42 1
  37   18   43 1
  38   19   20 ar
  39   19   44 1
  40   20   21 ar
  41   20   45 1
  42   21   22 ar
  43   21   46 1
  44   22   23 1
  45   23   24 1
  46   24   25 1
  47   24   47 1
  48   24   48 1
  49   25   26 1
  50   25   27 1
  51   25   49 1
  52   26   27 1
  53   26   50 1
  54   26   51 1
  55   27   52 1
  56   27   53 1

#	End of record

