#	Name: ASD03091069
#	Creating user name:	WinNT
#	Creation time:	15. 06. 2019 20:30

#	Modifying user name:	WinNT
#	Modification time:	15. 06. 2019 20:30

#	Program:	/corina/corina34_cracker 3.40 0067  02.08.2006

@<TRIPOS>MOLECULE
ASD03091069
  41   43    0    0    0
SMALL
NO_CHARGES


@<TRIPOS>ATOM
   1 N1             0.9912    -0.1630    -0.0810 N.2     
   2 C2            -0.2233     0.1545     0.2825 C.2     
   3 N3            -0.3650     1.5101     0.3822 N.2     
   4 N4             0.6722     2.1242     0.1103 N.2     
   5 C5             1.6965     1.1230    -0.2282 C.3     
   6 C6            -1.0830    -2.2432     0.2662 C.2     
   7 C7            -1.2972    -0.8197     0.5489 C.2     
   8 O8            -1.8861    -3.0691     0.6588 O.2     
   9 N9             0.0031    -2.6363    -0.4282 N.am    
  10 C10           -2.5015    -0.3934     1.0630 C.2     
  11 N11           -2.7499     0.9354     1.1991 N.pl3   
  12 C12           -4.0207     1.3733     1.5827 C.ar    
  13 C13           -4.2761     2.7316     1.7223 C.ar    
  14 C14           -5.5327     3.1613     2.1009 C.ar    
  15 C15           -6.5370     2.2401     2.3417 C.ar    
  16 C16           -6.2853     0.8862     2.2039 C.ar    
  17 C17           -5.0324     0.4511     1.8195 C.ar    
  18 Cl18          -8.1153     2.7838     2.8181 Cl      
  19 C19            0.2915    -3.9986    -0.5635 C.ar    
  20 C20            1.5971    -4.4141    -0.7909 C.ar    
  21 C21            1.8789    -5.7595    -0.9242 C.ar    
  22 C22            0.8619    -6.6933    -0.8314 C.ar    
  23 C23           -0.4399    -6.2820    -0.6050 C.ar    
  24 C24           -0.7264    -4.9383    -0.4652 C.ar    
  25 Cl25           1.2196    -8.3837    -1.0000 Cl      
  26 C26            2.8723     1.2060     0.7472 C.3     
  27 H27            2.0386     1.2569    -1.2544 H       
  28 H28            0.5849    -1.9747    -0.8341 H       
  29 H29           -3.2486    -1.1154     1.3580 H       
  30 H30           -2.0453     1.5803     1.0301 H       
  31 H31           -3.4925     3.4509     1.5352 H       
  32 H32           -5.7317     4.2172     2.2096 H       
  33 H33           -7.0709     0.1695     2.3927 H       
  34 H34           -4.8379    -0.6053     1.7074 H       
  35 H35            2.3911    -3.6857    -0.8637 H       
  36 H36            2.8940    -6.0831    -1.1013 H       
  37 H37           -1.2318    -7.0129    -0.5330 H       
  38 H38           -1.7419    -4.6181    -0.2840 H       
  39 H39            3.5710     0.3945     0.5439 H       
  40 H40            3.3803     2.1624     0.6234 H       
  41 H41            2.5033     1.1202     1.7693 H       
@<TRIPOS>BOND
   1    1    2 2
   2    1    5 1
   3    2    3 1
   4    2    7 1
   5    3    4 2
   6    4    5 1
   7    5   26 1
   8    5   27 1
   9    6    7 1
  10    6    8 2
  11    6    9 am
  12    7   10 2
  13    9   19 1
  14    9   28 1
  15   10   11 1
  16   10   29 1
  17   11   12 1
  18   11   30 1
  19   12   13 ar
  20   12   17 ar
  21   13   14 ar
  22   13   31 1
  23   14   15 ar
  24   14   32 1
  25   15   16 ar
  26   15   18 1
  27   16   17 ar
  28   16   33 1
  29   17   34 1
  30   19   20 ar
  31   19   24 ar
  32   20   21 ar
  33   20   35 1
  34   21   22 ar
  35   21   36 1
  36   22   23 ar
  37   22   25 1
  38   23   24 ar
  39   23   37 1
  40   24   38 1
  41   26   39 1
  42   26   40 1
  43   26   41 1

#	End of record

