#	Name: ASD03091389
#	Creating user name:	WinNT
#	Creation time:	15. 06. 2019 20:30

#	Modifying user name:	WinNT
#	Modification time:	15. 06. 2019 20:30

#	Program:	/corina/corina34_cracker 3.40 0067  02.08.2006

@<TRIPOS>MOLECULE
ASD03091389
  40   43    0    0    0
SMALL
NO_CHARGES


@<TRIPOS>ATOM
   1 N1            -2.0023    -2.6053    -1.4905 N.am    
   2 C2            -0.9479    -1.7767    -1.2685 C.2     
   3 N3            -1.0764    -0.5504    -0.8628 N.2     
   4 C4            -2.2957    -0.0024    -0.6285 C.ar    
   5 C5            -3.4505    -0.7898    -0.8325 C.ar    
   6 C6            -3.2703    -2.1731    -1.2976 C.2     
   7 O7            -4.2241    -2.9040    -1.4927 O.2     
   8 C8            -2.4336     1.3168    -0.1916 C.ar    
   9 C9            -3.6783     1.8324     0.0338 C.ar    
  10 C10           -4.8201     1.0595    -0.1657 C.ar    
  11 C11           -4.7131    -0.2493    -0.5987 C.ar    
  12 O12           -6.0475     1.5958     0.0661 O.3     
  13 C13           -7.1697     0.7174    -0.0393 C.3     
  14 C14           -8.3284     1.2601     0.8066 C.3     
  15 C15           -1.7644    -3.9764    -1.9483 C.3     
  16 C16           -7.6210     0.6345    -1.5004 C.3     
  17 N17           -9.0098     1.1010    -1.6086 N.3     
  18 C18           -9.9157     0.2475    -0.8275 C.3     
  19 C19           -9.5295     0.3185     0.6526 C.3     
  20 C20           -8.7193     2.6433     0.2708 C.3     
  21 C21           -9.1280     2.5071    -1.1986 C.3     
  22 H22            0.0481    -2.1584    -1.4380 H       
  23 H23           -1.5577     1.9281    -0.0318 H       
  24 H24           -3.7786     2.8533     0.3716 H       
  25 H25           -5.5994    -0.8468    -0.7535 H       
  26 H26           -6.8916    -0.2748     0.3159 H       
  27 H27           -8.0271     1.3343     1.8514 H       
  28 H28           -0.6923    -4.1440    -2.0519 H       
  29 H29           -2.1733    -4.6783    -1.2215 H       
  30 H30           -2.2505    -4.1271    -2.9122 H       
  31 H31           -6.9773     1.2629    -2.1160 H       
  32 H32           -7.5565    -0.3983    -1.8428 H       
  33 H33          -10.9412     0.5951    -0.9528 H       
  34 H34           -9.8354    -0.7824    -1.1753 H       
  35 H35           -9.2615    -0.6764     1.0082 H       
  36 H36          -10.3701     0.7011     1.2314 H       
  37 H37           -9.5567     3.0352     0.8480 H       
  38 H38           -7.8687     3.3201     0.3521 H       
  39 H39           -8.4740     3.1223    -1.8166 H       
  40 H40          -10.1599     2.8361    -1.3211 H       
@<TRIPOS>BOND
   1    1    2 1
   2    1   15 1
   3    1    6 am
   4    2    3 2
   5    2   22 1
   6    3    4 1
   7    4    5 ar
   8    4    8 ar
   9    5    6 1
  10    5   11 ar
  11    6    7 2
  12    8    9 ar
  13    8   23 1
  14    9   10 ar
  15    9   24 1
  16   10   11 ar
  17   10   12 1
  18   11   25 1
  19   12   13 1
  20   13   14 1
  21   13   16 1
  22   13   26 1
  23   14   20 1
  24   14   19 1
  25   14   27 1
  26   15   28 1
  27   15   29 1
  28   15   30 1
  29   16   17 1
  30   16   31 1
  31   16   32 1
  32   17   18 1
  33   17   21 1
  34   18   19 1
  35   18   33 1
  36   18   34 1
  37   19   35 1
  38   19   36 1
  39   20   21 1
  40   20   37 1
  41   20   38 1
  42   21   39 1
  43   21   40 1

#	End of record

