#	Name: ASD05430192
#	Creating user name:	WinNT
#	Creation time:	15. 06. 2019 20:59

#	Modifying user name:	WinNT
#	Modification time:	15. 06. 2019 20:59

#	Program:	/corina/corina34_cracker 3.40 0067  02.08.2006

@<TRIPOS>MOLECULE
ASD05430192
  64   70    0    0    0
SMALL
NO_CHARGES


@<TRIPOS>ATOM
   1 C1            -0.0168     1.3891     0.0097 C.ar    
   2 C2             0.0021    -0.0041     0.0020 C.ar    
   3 C3             1.2129    -0.6803    -0.0132 C.ar    
   4 C4             2.3976     0.0290    -0.0207 C.ar    
   5 C5             2.3769     1.4103    -0.0131 C.ar    
   6 C6             1.1672     2.0911     0.0021 C.ar    
   7 C7             5.3088     3.4316     1.4044 C.3     
   8 C8             4.0594     2.5417     1.4147 C.3     
   9 C9             3.6721     2.1807    -0.0208 C.3     
  10 C10            5.8508     3.5671     2.8247 C.3     
  11 C11            6.3711     2.2492     3.3995 C.3     
  12 N12            5.3694     1.2126     3.1506 N.pl3   
  13 C13            4.3772     1.2806     2.1895 C.2     
  14 N14            3.8035     0.1381     2.0545 N.2     
  15 C15            4.4639     0.1326     5.1510 C.ar    
  16 C16            3.7462    -0.9099     5.7071 C.ar    
  17 N17           -1.2025    -0.7221     0.0101 N.pl3   
  18 C18           -2.2474    -0.5367     0.8580 C.2     
  19 C19           -1.5503    -1.7399    -0.8400 C.2     
  20 C20           -2.7845    -2.1422    -0.4823 C.2     
  21 N21           -3.1854    -1.3921     0.5549 N.2     
  22 C22           -3.5799    -3.2422    -1.1370 C.3     
  23 C23            3.0829    -0.7306     6.9061 C.ar    
  24 C24            3.1374     0.4937     7.5505 C.ar    
  25 C25            3.8565     1.5371     6.9926 C.ar    
  26 C26            4.5191     1.3554     5.7935 C.ar    
  27 F27            2.4889     0.6702     8.7225 F       
  28 C28            6.8243     4.7406     3.0035 C.3     
  29 O29            6.1106     4.9926     4.2318 O.3     
  30 C30            4.9150     4.3263     3.7750 C.3     
  31 C31            5.1920    -0.0660     3.8465 C.3     
  32 O32            4.3852    -0.8240     2.9211 O.3     
  33 C33            6.5411    -0.7502     4.0757 C.3     
  34 C34            0.4629     3.4218     0.0160 C.3     
  35 C35           -0.8467     2.6452     0.0190 C.3     
  36 H36            1.2292    -1.7602    -0.0188 H       
  37 H37            3.3410    -0.4965    -0.0321 H       
  38 H38            6.0698     2.9817     0.7667 H       
  39 H39            5.0491     4.4177     1.0192 H       
  40 H40            3.2361     3.0705     1.8949 H       
  41 H41            4.4565     1.5683    -0.4656 H       
  42 H42            3.5487     3.0931    -0.6042 H       
  43 H43            7.3077     1.9797     2.9115 H       
  44 H44            6.5322     2.3544     4.4724 H       
  45 H45            3.7036    -1.8647     5.2041 H       
  46 H46           -2.2939     0.1955     1.6505 H       
  47 H47           -0.9498    -2.1416    -1.6428 H       
  48 H48           -3.3609    -4.1904    -0.6461 H       
  49 H49           -4.6440    -3.0238    -1.0474 H       
  50 H50           -3.3099    -3.3078    -2.1910 H       
  51 H51            2.5220    -1.5451     7.3402 H       
  52 H52            3.8997     2.4925     7.4943 H       
  53 H53            5.0801     2.1692     5.3581 H       
  54 H54            7.8607     4.4362     3.1497 H       
  55 H55            6.7099     5.5268     2.2572 H       
  56 H56            4.2096     4.9842     3.2675 H       
  57 H57            4.4456     3.6953     4.5297 H       
  58 H58            7.1773    -0.1051     4.6818 H       
  59 H59            6.3853    -1.6967     4.5933 H       
  60 H60            7.0220    -0.9361     3.1154 H       
  61 H61            0.6348     3.9969     0.9259 H       
  62 H62            0.6174     4.0067    -0.8907 H       
  63 H63           -1.4397     2.7865    -0.8845 H       
  64 H64           -1.4280     2.7738     0.9321 H       
@<TRIPOS>BOND
   1    1    2 ar
   2    1    6 ar
   3    1   35 1
   4    2    3 ar
   5    2   17 1
   6    3    4 ar
   7    3   36 1
   8    4    5 ar
   9    4   37 1
  10    5    6 ar
  11    5    9 1
  12    6   34 1
  13    7    8 1
  14    7   10 1
  15    7   38 1
  16    7   39 1
  17    8    9 1
  18    8   13 1
  19    8   40 1
  20    9   41 1
  21    9   42 1
  22   10   11 1
  23   10   28 1
  24   10   30 1
  25   11   12 1
  26   11   43 1
  27   11   44 1
  28   12   13 1
  29   12   31 1
  30   13   14 2
  31   14   32 1
  32   15   16 ar
  33   15   26 ar
  34   15   31 1
  35   16   23 ar
  36   16   45 1
  37   17   18 1
  38   17   19 1
  39   18   21 2
  40   18   46 1
  41   19   20 2
  42   19   47 1
  43   20   21 1
  44   20   22 1
  45   22   48 1
  46   22   49 1
  47   22   50 1
  48   23   24 ar
  49   23   51 1
  50   24   25 ar
  51   24   27 1
  52   25   26 ar
  53   25   52 1
  54   26   53 1
  55   28   29 1
  56   28   54 1
  57   28   55 1
  58   29   30 1
  59   30   56 1
  60   30   57 1
  61   31   32 1
  62   31   33 1
  63   33   58 1
  64   33   59 1
  65   33   60 1
  66   34   35 1
  67   34   61 1
  68   34   62 1
  69   35   63 1
  70   35   64 1

#	End of record

