#	Name: ASD03490058
#	Creating user name:	WinNT
#	Creation time:	15. 06. 2019 20:42

#	Modifying user name:	WinNT
#	Modification time:	15. 06. 2019 20:42

#	Program:	/corina/corina34_cracker 3.40 0067  02.08.2006

@<TRIPOS>MOLECULE
ASD03490058
  76   76    0    0    0
SMALL
NO_CHARGES


@<TRIPOS>ATOM
   1 C1            -0.0187     1.5275     0.0104 C.3     
   2 C2             0.0021    -0.0041     0.0020 C.3     
   3 C3             0.6801    -0.5016     1.2823 C.3     
   4 C4            -0.0626     0.0627     2.4962 C.3     
   5 O5            -0.0716     1.4900     2.4262 O.3     
   6 C6            -0.7344     2.0135     1.2735 C.3     
   7 C7            -0.7067     3.5425     1.3194 C.3     
   8 O8            -1.3695     4.0658     0.1666 O.3     
   9 C9            -1.4208     4.0279     2.5825 C.3     
  10 O10           -0.7580     3.5047     3.7353 O.3     
  11 C11           -1.3931     5.5570     2.6283 C.3     
  12 O12           -2.1713     6.0213     3.7628 O.3     
  13 C13           -2.2483     7.3488     3.9466 C.2     
  14 C14           -3.0385     7.9048     5.1031 C.3     
  15 O15           -1.6841     8.0979     3.1847 O.2     
  16 N16           -2.6000     9.2792     5.3800 N.3     
  17 C17           -4.5272     7.9058     4.7500 C.3     
  18 C18           -5.3295     8.4703     5.9241 C.3     
  19 C19           -4.7569     8.7738     3.5111 C.3     
  20 N20            1.3553     2.0359     0.0001 N.am    
  21 C21            2.0114     2.1805    -1.1683 C.2     
  22 C22            3.4248     2.7034    -1.1789 C.3     
  23 O23            1.4645     1.8899    -2.2110 O.2     
  24 O24           -1.3370    -0.5000    -0.0535 O.3     
  25 O25           -1.4066    -0.4227     2.5006 O.3     
  26 C26            0.6339    -0.3741     3.7592 C.2     
  27 O27            0.8520    -1.6786     3.9886 O.3     
  28 O28            0.9960     0.4498     4.5654 O.2     
  29 C29            1.5281    -2.0263     5.2256 C.3     
  30 O30            0.6050    -1.8864     6.3376 O.3     
  31 C31           -0.3303    -2.8391     6.4768 C.2     
  32 C32           -1.3231    -2.7608     7.6078 C.3     
  33 O33           -0.3761    -3.7595     5.6954 O.2     
  34 N34           -2.4921    -3.5924     7.2916 N.3     
  35 C35           -0.6703    -3.2671     8.8955 C.3     
  36 C36            0.5472    -2.4010     9.2248 C.3     
  37 C37           -1.6783    -3.1876    10.0438 C.3     
  38 H38           -0.5477     1.8895    -0.8712 H       
  39 H39            0.5591    -0.3564    -0.8662 H       
  40 H40            0.6500    -1.5908     1.3108 H       
  41 H41            1.7165    -0.1644     1.3002 H       
  42 H42           -1.7684     1.6687     1.2608 H       
  43 H43            0.3274     3.8870     1.3315 H       
  44 H44           -2.2960     3.7994     0.0908 H       
  45 H45           -2.4549     3.6835     2.5703 H       
  46 H46            0.1685     3.7711     3.8110 H       
  47 H47           -0.3630     5.8988     2.7300 H       
  48 H48           -1.8191     5.9559     1.7077 H       
  49 H49           -2.8749     7.2864     5.9856 H       
  50 H50           -1.6363     9.2980     5.6783 H       
  51 H51           -2.7415     9.8727     4.5764 H       
  52 H52           -4.8526     6.8860     4.5445 H       
  53 H53           -5.0041     9.4901     6.1296 H       
  54 H54           -6.3901     8.4710     5.6726 H       
  55 H55           -5.1658     7.8519     6.8067 H       
  56 H56           -4.1854     8.3717     2.6746 H       
  57 H57           -5.8175     8.7746     3.2596 H       
  58 H58           -4.4316     9.7936     3.7166 H       
  59 H59            1.7927     2.2683     0.8340 H       
  60 H60            4.1215     1.8688    -1.1005 H       
  61 H61            3.6060     3.2418    -2.1092 H       
  62 H62            3.5691     3.3778    -0.3348 H       
  63 H63           -1.3990    -1.4650    -0.0617 H       
  64 H64           -1.9372    -0.1048     3.2438 H       
  65 H65            1.8777    -3.0573     5.1711 H       
  66 H66            2.3790    -1.3615     5.3738 H       
  67 H67           -1.6390    -1.7263     7.7430 H       
  68 H68           -2.9785    -3.2393     6.4812 H       
  69 H69           -2.2253    -4.5567     7.1616 H       
  70 H70           -0.3544    -4.3015     8.7604 H       
  71 H71            1.0123    -2.7617    10.1423 H       
  72 H72            1.2653    -2.4576     8.4068 H       
  73 H73            0.2313    -1.3665     9.3600 H       
  74 H74           -2.5457    -3.8046     9.8092 H       
  75 H75           -1.2132    -3.5483    10.9612 H       
  76 H76           -1.9942    -2.1531    10.1790 H       
@<TRIPOS>BOND
   1    1    2 1
   2    1   20 1
   3    1    6 1
   4    1   38 1
   5    2    3 1
   6    2   24 1
   7    2   39 1
   8    3    4 1
   9    3   40 1
  10    3   41 1
  11    4    5 1
  12    4   25 1
  13    4   26 1
  14    5    6 1
  15    6    7 1
  16    6   42 1
  17    7    8 1
  18    7    9 1
  19    7   43 1
  20    8   44 1
  21    9   10 1
  22    9   11 1
  23    9   45 1
  24   10   46 1
  25   11   12 1
  26   11   47 1
  27   11   48 1
  28   12   13 1
  29   13   14 1
  30   13   15 2
  31   14   16 1
  32   14   17 1
  33   14   49 1
  34   16   50 1
  35   16   51 1
  36   17   18 1
  37   17   19 1
  38   17   52 1
  39   18   53 1
  40   18   54 1
  41   18   55 1
  42   19   56 1
  43   19   57 1
  44   19   58 1
  45   20   21 am
  46   20   59 1
  47   21   22 1
  48   21   23 2
  49   22   60 1
  50   22   61 1
  51   22   62 1
  52   24   63 1
  53   25   64 1
  54   26   27 1
  55   26   28 2
  56   27   29 1
  57   29   30 1
  58   29   65 1
  59   29   66 1
  60   30   31 1
  61   31   32 1
  62   31   33 2
  63   32   34 1
  64   32   35 1
  65   32   67 1
  66   34   68 1
  67   34   69 1
  68   35   36 1
  69   35   37 1
  70   35   70 1
  71   36   71 1
  72   36   72 1
  73   36   73 1
  74   37   74 1
  75   37   75 1
  76   37   76 1

#	End of record

