#	Name: ASD01900204
#	Creating user name:	WinNT
#	Creation time:	15. 06. 2019 19:51

#	Modifying user name:	WinNT
#	Modification time:	15. 06. 2019 19:51

#	Program:	/corina/corina34_cracker 3.40 0067  02.08.2006

@<TRIPOS>MOLECULE
ASD01900204
  62   67    0    0    0
SMALL
NO_CHARGES


@<TRIPOS>ATOM
   1 C1            -0.5191     1.4569     0.1309 C.ar    
   2 C2            -0.3332     0.1016     0.3043 C.ar    
   3 C3             0.9433    -0.4189     0.4598 C.ar    
   4 C4             2.0476     0.4133     0.4504 C.ar    
   5 C5             1.8769     1.7767     0.2832 C.ar    
   6 C6             0.5853     2.3058     0.1111 C.ar    
   7 N7             2.9546     2.6553     0.2863 N.pl3   
   8 C8             2.8521     3.9036    -0.4780 C.3     
   9 N9             1.5379     4.5150    -0.2769 N.am    
  10 C10            0.4396     3.7595    -0.0770 C.2     
  11 C11            3.9416     4.8732    -0.0105 C.3     
  12 C12            3.0533     3.6037    -1.9661 C.3     
  13 C13            3.0145     4.9149    -2.7545 C.3     
  14 N14            4.0720     5.8108    -2.2696 N.3     
  15 C15            3.8758     6.1486    -0.8541 C.3     
  16 C16            1.4192     5.9104    -0.2908 C.ar    
  17 C17            0.9045     6.5567    -1.4078 C.ar    
  18 C18            0.7886     7.9287    -1.4149 C.ar    
  19 C19            1.1746     8.6818    -0.3136 C.ar    
  20 C20            1.6946     8.0294     0.8019 C.ar    
  21 C21            1.8100     6.6556     0.8140 C.ar    
  22 C22            0.2869     8.9013    -2.4649 C.3     
  23 C23            0.8260    10.2510    -1.9348 C.3     
  24 O24            0.9547    10.0099    -0.5234 O.3     
  25 C25            4.1532     7.0240    -3.0939 C.3     
  26 C26            5.2030     7.9458    -2.5290 C.ar    
  27 C27            6.4904     7.9170    -3.0324 C.ar    
  28 C28            7.4549     8.7631    -2.5143 C.ar    
  29 C29            7.1287     9.6394    -1.4900 C.ar    
  30 C30            5.8394     9.6658    -0.9884 C.ar    
  31 C31            4.8766     8.8231    -1.5121 C.ar    
  32 F32            8.0689    10.4661    -0.9822 F       
  33 F33            8.7132     8.7352    -3.0054 F       
  34 Br34           1.1751    -2.2819     0.6871 Br      
  35 O35           -0.6624     4.2734    -0.0535 O.2     
  36 C36            2.1867    10.5727    -2.5561 C.3     
  37 H37           -1.5145     1.8573     0.0068 H       
  38 H38           -1.1873    -0.5592     0.3196 H       
  39 H39            3.0384     0.0016     0.5733 H       
  40 H40            3.7599     2.4468     0.7853 H       
  41 H41            3.7820     5.1219     1.0387 H       
  42 H42            4.9197     4.4073    -0.1305 H       
  43 H43            4.0188     3.1194    -2.1126 H       
  44 H44            2.2582     2.9452    -2.3156 H       
  45 H45            3.1717     4.7071    -3.8129 H       
  46 H46            2.0438     5.3918    -2.6185 H       
  47 H47            2.9014     6.6197    -0.7247 H       
  48 H48            4.6575     6.8370    -0.5332 H       
  49 H49            0.5960     5.9836    -2.2697 H       
  50 H50            2.0050     8.6023     1.6632 H       
  51 H51            2.2096     6.1572     1.6849 H       
  52 H52            0.7090     8.6704    -3.4430 H       
  53 H53           -0.8024     8.9051    -2.5034 H       
  54 H54            0.1135    11.0533    -2.1261 H       
  55 H55            4.4198     6.7522    -4.1152 H       
  56 H56            3.1874     7.5293    -3.0928 H       
  57 H57            6.7432     7.2339    -3.8298 H       
  58 H58            5.5843    10.3474    -0.1905 H       
  59 H59            3.8693     8.8472    -1.1232 H       
  60 H60            2.0857    10.6354    -3.6396 H       
  61 H61            2.5465    11.5260    -2.1690 H       
  62 H62            2.8972     9.7861    -2.3022 H       
@<TRIPOS>BOND
   1    1    2 ar
   2    1    6 ar
   3    1   37 1
   4    2    3 ar
   5    2   38 1
   6    3    4 ar
   7    3   34 1
   8    4    5 ar
   9    4   39 1
  10    5    7 1
  11    5    6 ar
  12    6   10 1
  13    7    8 1
  14    7   40 1
  15    8    9 1
  16    8   12 1
  17    8   11 1
  18    9   10 am
  19    9   16 1
  20   10   35 2
  21   11   15 1
  22   11   41 1
  23   11   42 1
  24   12   13 1
  25   12   43 1
  26   12   44 1
  27   13   14 1
  28   13   45 1
  29   13   46 1
  30   14   15 1
  31   14   25 1
  32   15   47 1
  33   15   48 1
  34   16   17 ar
  35   16   21 ar
  36   17   18 ar
  37   17   49 1
  38   18   22 1
  39   18   19 ar
  40   19   20 ar
  41   19   24 1
  42   20   21 ar
  43   20   50 1
  44   21   51 1
  45   22   23 1
  46   22   52 1
  47   22   53 1
  48   23   24 1
  49   23   36 1
  50   23   54 1
  51   25   26 1
  52   25   55 1
  53   25   56 1
  54   26   27 ar
  55   26   31 ar
  56   27   28 ar
  57   27   57 1
  58   28   29 ar
  59   28   33 1
  60   29   30 ar
  61   29   32 1
  62   30   31 ar
  63   30   58 1
  64   31   59 1
  65   36   60 1
  66   36   61 1
  67   36   62 1

#	End of record

