#	Name: ASD01885833
#	Creating user name:	WinNT
#	Creation time:	15. 06. 2019 19:50

#	Modifying user name:	WinNT
#	Modification time:	15. 06. 2019 19:50

#	Program:	/corina/corina34_cracker 3.40 0067  02.08.2006

@<TRIPOS>MOLECULE
ASD01885833
  59   62    0    0    0
SMALL
NO_CHARGES


@<TRIPOS>ATOM
   1 C1            -0.0160     1.3294     0.0094 C.ar    
   2 C2            -1.2520     2.0240     0.0189 C.ar    
   3 C3            -2.4596     1.2809     0.0205 C.ar    
   4 C4            -2.3700    -0.1047     0.0125 C.ar    
   5 C5            -1.1108    -0.7138     0.0033 C.ar    
   6 N6             0.0021    -0.0041     0.0020 N.ar    
   7 C7             1.1364     3.4285     0.0097 C.ar    
   8 C8            -0.0805     4.1065     0.0258 C.ar    
   9 C9            -1.2606     3.4246     0.0271 C.ar    
  10 C10           -3.7749     1.9611     0.0308 C.2     
  11 C11           -1.0240    -2.1941    -0.0047 C.2     
  12 C12            2.4227     4.2136     0.0097 C.3     
  13 N13            2.8503     4.4530     1.3945 N.3     
  14 C14            1.1821     2.0685     0.0019 C.ar    
  15 N15            0.1806    -2.7985    -0.0130 N.am    
  16 O16           -2.0389    -2.8621    -0.0037 O.2     
  17 C17            4.2124     5.0045     1.4375 C.3     
  18 C18            4.5943     5.2940     2.8916 C.3     
  19 O19            4.4717     4.0937     3.6594 O.3     
  20 C20            3.1576     3.5297     3.6402 C.3     
  21 C21            2.7611     3.2223     2.1937 C.3     
  22 C22            3.1442     2.2374     4.4592 C.3     
  23 C23            6.0395     5.7928     2.9506 C.3     
  24 F24            6.1597     6.9642     2.1953 F       
  25 F25            6.3877     6.0571     4.2796 F       
  26 F26            6.8925     4.8132     2.4310 F       
  27 C27           -4.5101     2.3381     1.1736 C.2     
  28 N28           -5.6138     2.9109     0.7742 N.2     
  29 N29           -5.6291     2.9234    -0.6256 N.pl3   
  30 C30           -4.4959     2.3438    -1.0657 C.2     
  31 C31           -4.0951     2.1180     2.6055 C.3     
  32 C32           -4.0990     2.1450    -2.5059 C.3     
  33 C33           -6.6931     3.4762    -1.4673 C.3     
  34 H34           -3.2660    -0.7077     0.0137 H       
  35 H35           -0.0889     5.1864     0.0378 H       
  36 H36           -2.1976     3.9616     0.0341 H       
  37 H37            3.1929     3.6491    -0.5159 H       
  38 H38            2.2657     5.1683    -0.4923 H       
  39 H39            2.1338     1.5582    -0.0097 H       
  40 H40            0.9908    -2.2651    -0.0139 H       
  41 H41            0.2373    -3.7668    -0.0182 H       
  42 H42            4.9109     4.2825     1.0146 H       
  43 H43            4.2493     5.9286     0.8606 H       
  44 H44            3.9288     6.0556     3.2980 H       
  45 H45            2.4503     4.2400     4.0683 H       
  46 H46            1.7386     2.8455     2.1688 H       
  47 H47            3.4364     2.4718     1.7828 H       
  48 H48            3.4303     2.4562     5.4879 H       
  49 H49            2.1424     1.8080     4.4441 H       
  50 H50            3.8504     1.5272     4.0289 H       
  51 H51           -3.5222     2.9774     2.9539 H       
  52 H52           -4.9826     1.9971     3.2266 H       
  53 H53           -3.4802     1.2204     2.6717 H       
  54 H54           -3.5348     3.0118    -2.8502 H       
  55 H55           -3.4809     1.2514    -2.5924 H       
  56 H56           -4.9942     2.0282    -3.1166 H       
  57 H57           -6.4847     4.5261    -1.6734 H       
  58 H58           -6.7381     2.9237    -2.4058 H       
  59 H59           -7.6480     3.3903    -0.9489 H       
@<TRIPOS>BOND
   1    1    6 ar
   2    1   14 ar
   3    1    2 ar
   4    2    3 ar
   5    2    9 ar
   6    3   10 1
   7    3    4 ar
   8    4    5 ar
   9    4   34 1
  10    5   11 1
  11    5    6 ar
  12    7   12 1
  13    7    8 ar
  14    7   14 ar
  15    8    9 ar
  16    8   35 1
  17    9   36 1
  18   10   27 1
  19   10   30 2
  20   11   15 am
  21   11   16 2
  22   12   13 1
  23   12   37 1
  24   12   38 1
  25   13   17 1
  26   13   21 1
  27   14   39 1
  28   15   40 1
  29   15   41 1
  30   17   18 1
  31   17   42 1
  32   17   43 1
  33   18   19 1
  34   18   23 1
  35   18   44 1
  36   19   20 1
  37   20   21 1
  38   20   22 1
  39   20   45 1
  40   21   46 1
  41   21   47 1
  42   22   48 1
  43   22   49 1
  44   22   50 1
  45   23   24 1
  46   23   25 1
  47   23   26 1
  48   27   28 2
  49   27   31 1
  50   28   29 1
  51   29   30 1
  52   29   33 1
  53   30   32 1
  54   31   51 1
  55   31   52 1
  56   31   53 1
  57   32   54 1
  58   32   55 1
  59   32   56 1
  60   33   57 1
  61   33   58 1
  62   33   59 1

#	End of record

