#	Name: ASD09750017
#	Creating user name:	WinNT
#	Creation time:	15. 06. 2019 21:23

#	Modifying user name:	WinNT
#	Modification time:	15. 06. 2019 21:23

#	Program:	/corina/corina34_cracker 3.40 0067  02.08.2006

@<TRIPOS>MOLECULE
ASD09750017
  89   92    0    0    0
SMALL
NO_CHARGES


@<TRIPOS>ATOM
   1 C1             1.3476     3.0786     0.3256 C.ar    
   2 C2             1.2297     1.7013     0.3184 C.ar    
   3 C3             2.3632     0.9107     0.2863 C.ar    
   4 C4             3.6146     1.4974     0.2611 C.ar    
   5 C5             3.7325     2.8747     0.2674 C.ar    
   6 C6             2.5990     3.6653     0.3008 C.ar    
   7 C7             2.7276     5.1667     0.3082 C.3     
   8 C8            -0.1346     1.0617     0.3459 C.3     
   9 C9             4.8503     0.6355     0.2271 C.3     
  10 C10            5.2294     0.3570    -1.2046 C.2     
  11 O11            4.5619     0.8135    -2.1084 O.2     
  12 N12            6.3103    -0.3993    -1.4806 N.am    
  13 C13            6.6925    -0.6795    -2.8713 C.3     
  14 C14            6.8230    -2.1953    -3.0509 C.3     
  15 C15            7.7980    -2.7464    -2.0079 C.3     
  16 C16            7.2547    -2.4714    -0.6039 C.3     
  17 C17            7.1323    -0.9542    -0.3966 C.3     
  18 C18            7.9575    -4.2551    -2.2063 C.3     
  19 C19            9.0244    -4.7857    -1.2467 C.3     
  20 C20            9.1839    -6.2944    -1.4450 C.3     
  21 C21           10.2509    -6.8250    -0.4854 C.3     
  22 C22           10.3237    -8.3506    -0.5941 C.3     
  23 C23           11.4337    -8.8700     0.3226 C.3     
  24 N24           12.7155    -8.2716    -0.0712 N.3     
  25 C25           12.6850    -6.8102     0.0701 C.3     
  26 C26           11.6124    -6.2293    -0.8540 C.3     
  27 C27           13.7616    -8.8184     0.6527 C.ar    
  28 N28           13.5113    -9.7550     1.5573 N.ar    
  29 C29           14.4743   -10.3030     2.2687 C.ar    
  30 C30           15.8008    -9.9085     2.0888 C.ar    
  31 C31           16.0945    -8.9189     1.1378 C.ar    
  32 C32           15.0637    -8.3806     0.4162 C.ar    
  33 C33           16.8790   -10.5225     2.8872 C.2     
  34 N34           16.5861   -11.4716     3.7981 N.am    
  35 C35           17.6567   -12.0813     4.5909 C.3     
  36 C36           17.0795   -12.6121     5.9046 C.3     
  37 O37           16.1713   -13.6803     5.6288 O.3     
  38 O38           18.0318   -10.1722     2.7233 O.2     
  39 C39           18.2702   -13.2188     3.8158 C.2     
  40 N40           19.5499   -13.5759     4.0426 N.am    
  41 C41           18.2163   -13.1252     6.7907 C.3     
  42 O42           17.6125   -13.8129     2.9880 O.2     
  43 H43            0.4619     3.6963     0.3461 H       
  44 H44            2.2711    -0.1654     0.2814 H       
  45 H45            4.7102     3.3330     0.2483 H       
  46 H46            2.7333     5.5360    -0.7174 H       
  47 H47            1.8847     5.6009     0.8460 H       
  48 H48            3.6577     5.4494     0.8013 H       
  49 H49           -0.4877     0.9149    -0.6748 H       
  50 H50           -0.0739     0.0979     0.8515 H       
  51 H51           -0.8289     1.7095     0.8810 H       
  52 H52            5.6691     1.1545     0.7254 H       
  53 H53            4.6511    -0.3055     0.7399 H       
  54 H54            5.9261    -0.2964    -3.5452 H       
  55 H55            7.6473    -0.2019    -3.0912 H       
  56 H56            5.8471    -2.6626    -2.9195 H       
  57 H57            7.1991    -2.4121    -4.0508 H       
  58 H58            8.7668    -2.2607    -2.1240 H       
  59 H59            6.2748    -2.9361    -0.4954 H       
  60 H60            7.9380    -2.8848     0.1380 H       
  61 H61            8.1238    -0.5017    -0.4144 H       
  62 H62            6.6541    -0.7538     0.5622 H       
  63 H63            7.0079    -4.7506    -2.0038 H       
  64 H64            8.2605    -4.4564    -3.2338 H       
  65 H65            9.9740    -4.2902    -1.4491 H       
  66 H66            8.7214    -4.5844    -0.2192 H       
  67 H67            8.2344    -6.7898    -1.2426 H       
  68 H68            9.4869    -6.4957    -2.4725 H       
  69 H69            9.9940    -6.5444     0.5361 H       
  70 H70            9.3699    -8.7829    -0.2917 H       
  71 H71           10.5411    -8.6320    -1.6244 H       
  72 H72           11.2086    -8.6001     1.3544 H       
  73 H73           11.4976    -9.9547     0.2368 H       
  74 H74           12.4541    -6.5500     1.1031 H       
  75 H75           13.6579    -6.3989    -0.1990 H       
  76 H76           11.8502    -6.4774    -1.8885 H       
  77 H77           11.5794    -5.1461    -0.7374 H       
  78 H78           14.2357   -11.0635     2.9975 H       
  79 H79           17.1113    -8.5928     0.9761 H       
  80 H80           15.2563    -7.6173    -0.3232 H       
  81 H81           15.6665   -11.7511     3.9288 H       
  82 H82           18.4207   -11.3340     4.8053 H       
  83 H83           16.5511   -11.8098     6.4198 H       
  84 H84           16.5740   -14.4304     5.1703 H       
  85 H85           20.0536   -13.1498     4.7537 H       
  86 H86           19.9672   -14.2589     3.4946 H       
  87 H87           18.9604   -12.3391     6.9187 H       
  88 H88           17.8178   -13.4102     7.7644 H       
  89 H89           18.6807   -13.9919     6.3203 H       
@<TRIPOS>BOND
   1    1    2 ar
   2    1    6 ar
   3    1   43 1
   4    2    3 ar
   5    2    8 1
   6    3    4 ar
   7    3   44 1
   8    4    5 ar
   9    4    9 1
  10    5    6 ar
  11    5   45 1
  12    6    7 1
  13    7   46 1
  14    7   47 1
  15    7   48 1
  16    8   49 1
  17    8   50 1
  18    8   51 1
  19    9   10 1
  20    9   52 1
  21    9   53 1
  22   10   11 2
  23   10   12 am
  24   12   13 1
  25   12   17 1
  26   13   14 1
  27   13   54 1
  28   13   55 1
  29   14   15 1
  30   14   56 1
  31   14   57 1
  32   15   16 1
  33   15   18 1
  34   15   58 1
  35   16   17 1
  36   16   59 1
  37   16   60 1
  38   17   61 1
  39   17   62 1
  40   18   19 1
  41   18   63 1
  42   18   64 1
  43   19   20 1
  44   19   65 1
  45   19   66 1
  46   20   21 1
  47   20   67 1
  48   20   68 1
  49   21   22 1
  50   21   26 1
  51   21   69 1
  52   22   23 1
  53   22   70 1
  54   22   71 1
  55   23   24 1
  56   23   72 1
  57   23   73 1
  58   24   25 1
  59   24   27 1
  60   25   26 1
  61   25   74 1
  62   25   75 1
  63   26   76 1
  64   26   77 1
  65   27   28 ar
  66   27   32 ar
  67   28   29 ar
  68   29   30 ar
  69   29   78 1
  70   30   31 ar
  71   30   33 1
  72   31   32 ar
  73   31   79 1
  74   32   80 1
  75   33   34 am
  76   33   38 2
  77   34   35 1
  78   34   81 1
  79   35   36 1
  80   35   39 1
  81   35   82 1
  82   36   37 1
  83   36   41 1
  84   36   83 1
  85   37   84 1
  86   39   40 am
  87   39   42 2
  88   40   85 1
  89   40   86 1
  90   41   87 1
  91   41   88 1
  92   41   89 1

#	End of record

