#	Name: ASD01912033
#	Creating user name:	WinNT
#	Creation time:	15. 06. 2019 19:58

#	Modifying user name:	WinNT
#	Modification time:	15. 06. 2019 19:58

#	Program:	/corina/corina34_cracker 3.40 0067  02.08.2006

@<TRIPOS>MOLECULE
ASD01912033
  32   35    0    0    0
SMALL
NO_CHARGES


@<TRIPOS>ATOM
   1 C1            -0.0160     1.3265     0.0093 C.ar    
   2 N2             0.0021    -0.0041     0.0020 N.ar    
   3 C3            -1.1260    -0.6963     0.0095 C.ar    
   4 N4            -2.3148    -0.1071     0.0241 N.ar    
   5 C5            -2.4257     1.2087     0.0322 C.ar    
   6 C6            -1.2645     1.9895     0.0308 C.ar    
   7 C7            -1.3387     3.4195     0.0398 C.1     
   8 N8            -1.3975     4.5539     0.0471 N.1     
   9 N9            -1.0636    -2.0789     0.0015 N.pl3   
  10 C10           -2.2261    -2.8220     0.0091 C.2     
  11 O11           -2.2817    -4.1655     0.0024 O.3     
  12 C12           -3.5833    -4.5341     0.0134 C.ar    
  13 C13           -4.3307    -3.3469     0.0272 C.ar    
  14 N14           -3.4347    -2.3224     0.0294 N.2     
  15 C15           -4.2333    -5.7577     0.0137 C.ar    
  16 C16           -5.6126    -5.8039     0.0275 C.ar    
  17 C17           -6.3551    -4.6330     0.0407 C.ar    
  18 C18           -5.7250    -3.4081     0.0407 C.ar    
  19 C19            1.3807     3.2726    -0.6421 C.2     
  20 C20            1.2452     2.0965     0.0014 C.2     
  21 C21            2.4003     1.6682     0.6614 C.2     
  22 C22            3.4298     2.5015     0.5354 C.2     
  23 S23            2.9612     3.8840    -0.4430 S.3     
  24 H24           -3.3994     1.6758     0.0440 H       
  25 H25           -0.2026    -2.5255    -0.0095 H       
  26 H26           -3.6616    -6.6739     0.0027 H       
  27 H27           -6.1172    -6.7588     0.0277 H       
  28 H28           -7.4340    -4.6817     0.0511 H       
  29 H29           -6.3075    -2.4987     0.0511 H       
  30 H30            0.5996     3.7580    -1.2085 H       
  31 H31            2.4523     0.7466     1.2221 H       
  32 H32            4.4072     2.3509     0.9694 H       
@<TRIPOS>BOND
   1    1    2 ar
   2    1   20 1
   3    1    6 ar
   4    2    3 ar
   5    3    4 ar
   6    3    9 1
   7    4    5 ar
   8    5    6 ar
   9    5   24 1
  10    6    7 1
  11    7    8 3
  12    9   10 1
  13    9   25 1
  14   10   11 1
  15   10   14 2
  16   11   12 1
  17   12   13 ar
  18   12   15 ar
  19   13   14 1
  20   13   18 ar
  21   15   16 ar
  22   15   26 1
  23   16   17 ar
  24   16   27 1
  25   17   18 ar
  26   17   28 1
  27   18   29 1
  28   19   20 2
  29   19   23 1
  30   19   30 1
  31   20   21 1
  32   21   22 2
  33   21   31 1
  34   22   23 1
  35   22   32 1

#	End of record

