#	Name: ASD01913249
#	Creating user name:	WinNT
#	Creation time:	15. 06. 2019 20:01

#	Modifying user name:	WinNT
#	Modification time:	15. 06. 2019 20:01

#	Program:	/corina/corina34_cracker 3.40 0067  02.08.2006

@<TRIPOS>MOLECULE
ASD01913249
  44   47    0    0    0
SMALL
NO_CHARGES


@<TRIPOS>ATOM
   1 C1             0.5047     0.8809     1.0150 C.3     
   2 C2             1.0571    -0.4607     1.4268 C.2     
   3 C3             2.2925    -0.9028     1.1076 C.2     
   4 C4             3.2959    -0.1175     0.3004 C.3     
   5 C5             2.5615     1.0002    -0.4503 C.3     
   6 N6             1.6268     1.6664     0.4691 N.am    
   7 C7             1.3428    -2.4537     2.2644 C.2     
   8 N8             0.4561    -1.4369     2.1589 N.pl3   
   9 N9             2.4382    -2.1240     1.6314 N.2     
  10 C10            1.7914     2.9616     0.8038 C.2     
  11 O11            2.7795     3.5643     0.4327 O.2     
  12 C12            0.7699     3.6492     1.6224 C.ar    
  13 C13            1.1535     4.6130     2.5522 C.ar    
  14 C14            0.1833     5.2571     3.3199 C.ar    
  15 C15           -1.1662     4.9313     3.1510 C.ar    
  16 C16           -1.5378     3.9753     2.2276 C.ar    
  17 C17           -0.5820     3.3379     1.4608 C.ar    
  18 C18            0.5680     6.2489     4.2785 C.1     
  19 C19            0.8834     7.0620     5.0645 C.1     
  20 C20            1.2681     8.0537     6.0231 C.ar    
  21 C21            0.2903     8.6948     6.7886 C.ar    
  22 C22            0.6787     9.6498     7.7103 C.ar    
  23 C23            2.0314     9.9357     7.8397 C.ar    
  24 C24            2.9466     9.2637     7.0503 C.ar    
  25 N25            2.5534     8.3541     6.1825 N.ar    
  26 C26           -2.2167     5.6252     3.9793 C.3     
  27 H27           -0.2615     0.7481     0.2512 H       
  28 H28            0.0821     1.3899     1.8812 H       
  29 H29            4.0403     0.3180     0.9669 H       
  30 H30            3.7856    -0.7777    -0.4155 H       
  31 H31            3.2851     1.7253    -0.8226 H       
  32 H32            2.0078     0.5742    -1.2870 H       
  33 H33            1.1735    -3.3844     2.7855 H       
  34 H34           -0.4379    -1.4093     2.5344 H       
  35 H35            2.1973     4.8601     2.6783 H       
  36 H36           -2.5813     3.7273     2.1010 H       
  37 H37           -0.8806     2.5940     0.7370 H       
  38 H38           -0.7535     8.4482     6.6619 H       
  39 H39           -0.0541    10.1623     8.3160 H       
  40 H40            2.3658    10.6768     8.5505 H       
  41 H41            3.9990     9.4849     7.1496 H       
  42 H42           -2.5559     6.5213     3.4596 H       
  43 H43           -3.0608     4.9529     4.1331 H       
  44 H44           -1.7932     5.9033     4.9444 H       
@<TRIPOS>BOND
   1    1    2 1
   2    1    6 1
   3    1   27 1
   4    1   28 1
   5    2    3 2
   6    2    8 1
   7    3    4 1
   8    3    9 1
   9    4    5 1
  10    4   29 1
  11    4   30 1
  12    5    6 1
  13    5   31 1
  14    5   32 1
  15    6   10 am
  16    7    8 1
  17    7    9 2
  18    7   33 1
  19    8   34 1
  20   10   11 2
  21   10   12 1
  22   12   13 ar
  23   12   17 ar
  24   13   14 ar
  25   13   35 1
  26   14   15 ar
  27   14   18 1
  28   15   16 ar
  29   15   26 1
  30   16   17 ar
  31   16   36 1
  32   17   37 1
  33   18   19 3
  34   19   20 1
  35   20   21 ar
  36   20   25 ar
  37   21   22 ar
  38   21   38 1
  39   22   23 ar
  40   22   39 1
  41   23   24 ar
  42   23   40 1
  43   24   25 ar
  44   24   41 1
  45   26   42 1
  46   26   43 1
  47   26   44 1

#	End of record

