#	Name: ASD06590044
#	Creating user name:	WinNT
#	Creation time:	15. 06. 2019 21:06

#	Modifying user name:	WinNT
#	Modification time:	15. 06. 2019 21:06

#	Program:	/corina/corina34_cracker 3.40 0067  02.08.2006

@<TRIPOS>MOLECULE
ASD06590044
 269  269    0    0    0
SMALL
NO_CHARGES


@<TRIPOS>ATOM
   1 C1            -0.1737     1.2931     0.5653 C.2     
   2 O2            -0.1285     0.0873     0.4429 O.2     
   3 N3             2.2301     1.1530     0.8666 N.am    
   4 C4             1.0913     2.0731     0.8147 C.3     
   5 C5             1.3009     3.0806    -0.3175 C.3     
   6 C6             1.4564     2.3441    -1.6230 C.2     
   7 O7             1.3485     1.1410    -1.6545 O.2     
   8 O8             1.7149     3.0245    -2.7508 O.3     
   9 C9            -3.6034     2.0755    -0.4288 C.2     
  10 O10           -3.4839     3.2804    -0.3595 O.2     
  11 N11           -1.3546     1.9360     0.4726 N.am    
  12 C12           -2.5837     1.1784     0.2242 C.3     
  13 C13           -3.1384     0.6569     1.5512 C.3     
  14 C14           -2.1095    -0.2667     2.2064 C.3     
  15 O15           -3.4107     1.7587     2.4196 O.3     
  16 C16           -6.9737     1.6404    -1.7760 C.2     
  17 O17           -7.0242     0.4802    -1.4260 O.2     
  18 N18           -4.6483     1.5388    -1.0897 N.am    
  19 C19           -5.6831     2.4088    -1.6540 C.3     
  20 C20           -5.2443     2.8918    -3.0379 C.3     
  21 C21           -4.0033     3.7759    -2.8997 C.3     
  22 C22           -3.5646     4.2590    -4.2836 C.3     
  23 N23           -2.3763     5.1056    -4.1512 N.pl3   
  24 C24           -1.7981     5.6582    -5.2694 C.2     
  25 N25           -2.3070     5.4289    -6.4472 N.2     
  26 N26           -0.6829     6.4527    -5.1452 N.pl3   
  27 C27          -10.1759     2.1088    -3.4759 C.2     
  28 O28           -9.7729     3.0748    -4.0885 O.2     
  29 N29           -8.0719     2.2424    -2.2740 N.am    
  30 C30           -9.3266     1.4954    -2.3927 C.3     
  31 C31          -10.0799     1.5491    -1.0620 C.3     
  32 C32           -9.2724     0.8163     0.0112 C.3     
  33 C33          -10.0143     0.8692     1.3218 C.2     
  34 O34          -11.0837     1.4372     1.3907 O.2     
  35 N35           -9.4895     0.2854     2.4173 N.am    
  36 C36          -13.6597     1.8659    -4.5563 C.2     
  37 O37          -13.9730     1.2086    -3.5864 O.2     
  38 N38          -11.3834     1.5838    -3.7639 N.am    
  39 C39          -12.2091     2.1801    -4.8169 C.3     
  40 C40          -11.7985     1.6051    -6.1740 C.3     
  41 C41          -10.3641     2.0299    -6.4950 C.3     
  42 C42           -9.9597     1.4634    -7.8317 C.2     
  43 O43          -10.7418     0.7867    -8.4652 O.2     
  44 N44           -8.7290     1.7090    -8.3232 N.am    
  45 C45          -16.7836     2.0532    -6.4456 C.2     
  46 O46          -16.2072     2.3136    -7.4804 O.2     
  47 N47          -14.6089     2.3153    -5.4010 N.am    
  48 C48          -16.0191     2.0098    -5.1476 C.3     
  49 C49          -16.5988     3.0431    -4.1795 C.3     
  50 C50          -15.9168     2.9162    -2.8417 C.ar    
  51 C51          -14.7749     3.6494    -2.5769 C.ar    
  52 C52          -14.1475     3.5345    -1.3515 C.ar    
  53 C53          -14.6645     2.6829    -0.3860 C.ar    
  54 O54          -14.0495     2.5684     0.8204 O.3     
  55 C55          -15.8107     1.9486    -0.6540 C.ar    
  56 C56          -16.4372     2.0710    -1.8792 C.ar    
  57 C57          -20.3007     2.1452    -7.4376 C.2     
  58 O58          -20.6763     2.3081    -6.2960 O.2     
  59 N59          -18.1078     1.8026    -6.4565 N.am    
  60 C60          -18.8509     1.8447    -7.7183 C.3     
  61 C61          -18.7376     0.4910    -8.4223 C.3     
  62 C62          -17.2809     0.2426    -8.8187 C.3     
  63 C63          -17.1676    -1.1110    -9.5227 C.3     
  64 N64          -15.7727    -1.3489    -9.9022 N.pl3   
  65 C65          -15.4255    -2.5094   -10.5523 C.2     
  66 N66          -16.3374    -3.3981   -10.8311 N.2     
  67 N67          -14.1165    -2.7327   -10.9084 N.pl3   
  68 C68          -23.4403     1.9857    -9.3032 C.2     
  69 O69          -22.9206     1.4137   -10.2379 O.2     
  70 N70          -21.1800     2.2329    -8.4553 N.am    
  71 C71          -22.5894     2.5249    -8.1824 C.3     
  72 C72          -22.7853     4.0386    -8.0762 C.3     
  73 C73          -22.0198     4.5680    -6.8619 C.3     
  74 C74          -22.2156     6.0817    -6.7557 C.3     
  75 C75          -21.4501     6.6111    -5.5414 C.3     
  76 N76          -21.6382     8.0644    -5.4395 N.3     
  77 C77          -26.8946     2.3930   -10.4281 C.2     
  78 O78          -27.1016     3.2965    -9.6459 O.2     
  79 N79          -24.7789     2.1391    -9.2669 N.am    
  80 C80          -25.6060     1.6149   -10.3565 C.3     
  81 C81          -25.9152     0.1390   -10.0974 C.3     
  82 C82          -24.6179    -0.6705   -10.1486 C.3     
  83 C83          -24.9081    -2.1235    -9.7673 C.3     
  84 C84          -24.0410    -0.6203   -11.5648 C.3     
  85 C85          -30.1364     1.9890   -12.0683 C.2     
  86 O86          -29.8760     0.8608   -12.4290 O.2     
  87 N87          -27.8169     2.0849   -11.3612 N.am    
  88 C88          -29.0696     2.8414   -11.4308 C.3     
  89 C89          -28.8571     4.1038   -12.2687 C.3     
  90 C90          -27.8657     5.0270   -11.5575 C.3     
  91 C91          -27.5576     6.2299   -12.4514 C.3     
  92 C92          -28.4754     5.5128   -10.2410 C.3     
  93 C93          -33.4619     2.5395   -13.4829 C.2     
  94 O94          -33.3512     3.7455   -13.4175 O.2     
  95 N95          -31.3799     2.4805   -12.2376 N.am    
  96 C96          -32.4170     1.6519   -12.8573 C.3     
  97 C97          -33.0693     0.7694   -11.7913 C.3     
  98 C98          -32.0361    -0.2175   -11.2440 C.3     
  99 C99          -32.6885    -1.1000   -10.1780 C.3     
 100 C100         -31.6553    -2.0868    -9.6307 C.3     
 101 N101         -32.2816    -2.9342    -8.6072 N.3     
 102 C102         -36.5475     3.2528   -13.6796 C.2     
 103 O103         -36.4322     2.8555   -12.5444 O.2     
 104 N104         -34.5194     1.9932   -14.1151 N.am    
 105 C105         -35.5352     2.8560   -14.7232 C.3     
 106 C106         -36.2371     2.0995   -15.8528 C.3     
 107 O107         -36.9582     0.9924   -15.3085 O.3     
 108 O108         -37.5771     4.0475   -14.0113 O.3     
 109 C109           3.3358     1.4876     1.5608 C.2     
 110 O110           3.4260     2.5873     2.0644 O.2     
 111 C111          20.3292    -2.1728     8.5618 C.3     
 112 C112          19.1878    -1.1655     8.4089 C.3     
 113 C113          18.0622    -1.7916     7.5831 C.3     
 114 C114          16.9208    -0.7843     7.4302 C.3     
 115 C115          15.7952    -1.4105     6.6045 C.3     
 116 C116          14.6538    -0.4031     6.4516 C.3     
 117 C117          13.5282    -1.0293     5.6259 C.3     
 118 C118          12.3868    -0.0219     5.4730 C.3     
 119 C119          11.2611    -0.6481     4.6473 C.3     
 120 C120          10.1197     0.3592     4.4944 C.3     
 121 C121           8.9941    -0.2669     3.6687 C.3     
 122 C122           7.8527     0.7404     3.5158 C.3     
 123 C123           6.7271     0.1143     2.6901 C.3     
 124 C124           5.5857     1.1216     2.5372 C.3     
 125 C125           4.4601     0.4955     1.7114 C.3     
 126 H126           2.1884     0.3029     0.4013 H       
 127 H127           1.0097     2.6041     1.7631 H       
 128 H128           0.4394     3.7458    -0.3760 H       
 129 H129           2.1992     3.6660    -0.1213 H       
 130 H130           1.8063     2.5086    -3.5636 H       
 131 H131          -1.3908     2.9004     0.5705 H       
 132 H132          -2.3652     0.3374    -0.4339 H       
 133 H133          -4.0590     0.1029     1.3676 H       
 134 H134          -1.2328     0.3130     2.4952 H       
 135 H135          -2.5473    -0.7285     3.0914 H       
 136 H136          -1.8154    -1.0425     1.4995 H       
 137 H137          -4.0562     2.3868     2.0675 H       
 138 H138          -4.7150     0.5765    -1.1917 H       
 139 H139          -5.8321     3.2677    -0.9997 H       
 140 H140          -5.0098     2.0319    -3.6653 H       
 141 H141          -6.0504     3.4659    -3.4948 H       
 142 H142          -4.2379     4.6358    -2.2722 H       
 143 H143          -3.1973     3.2019    -2.4428 H       
 144 H144          -3.3300     3.3991    -4.9110 H       
 145 H145          -4.3707     4.8330    -4.7405 H       
 146 H146          -1.9976     5.2762    -3.2747 H       
 147 H147          -1.8990     5.8189    -7.2362 H       
 148 H148          -0.3042     6.6233    -4.2687 H       
 149 H149          -0.2749     6.8426    -5.9342 H       
 150 H150          -8.0316     3.1702    -2.5540 H       
 151 H151          -9.1091     0.4576    -2.6454 H       
 152 H152         -10.2193     2.5886    -0.7652 H       
 153 H153         -11.0523     1.0701    -1.1754 H       
 154 H154          -9.1329    -0.2232    -0.2857 H       
 155 H155          -8.2999     1.2953     0.1246 H       
 156 H156          -8.6343    -0.1689     2.3622 H       
 157 H157          -9.9671     0.3195     3.2609 H       
 158 H158         -11.7057     0.8112    -3.2739 H       
 159 H159         -12.0666     3.2608    -4.8221 H       
 160 H160         -11.8563     0.5171    -6.1401 H       
 161 H161         -12.4701     1.9807    -6.9460 H       
 162 H162         -10.3063     3.1178    -6.5289 H       
 163 H163          -9.6925     1.6542    -5.7230 H       
 164 H164          -8.1036     2.2502    -7.8165 H       
 165 H165          -8.4687     1.3444    -9.1835 H       
 166 H166         -14.3583     2.8411    -6.1767 H       
 167 H167         -16.1024     1.0150    -4.7099 H       
 168 H168         -16.4357     4.0449    -4.5769 H       
 169 H169         -17.6682     2.8693    -4.0601 H       
 170 H170         -14.3728     4.3122    -3.3288 H       
 171 H171         -13.2552     4.1069    -1.1453 H       
 172 H172         -14.3679     3.1944     1.4852 H       
 173 H173         -16.2149     1.2847     0.0958 H       
 174 H174         -17.3320     1.5030    -2.0867 H       
 175 H175         -18.5688     1.5943    -5.6288 H       
 176 H176         -18.4359     2.6231    -8.3586 H       
 177 H177         -19.0704    -0.2981    -7.7481 H       
 178 H178         -19.3620     0.4928    -9.3158 H       
 179 H179         -16.9481     1.0318    -9.4929 H       
 180 H180         -16.6565     0.2409    -7.9252 H       
 181 H181         -17.5004    -1.9002    -8.8485 H       
 182 H182         -17.7920    -1.1092   -10.4162 H       
 183 H183         -15.0941    -0.6875    -9.6947 H       
 184 H184         -16.0924    -4.2169   -11.2898 H       
 185 H185         -13.4379    -2.0713   -10.7010 H       
 186 H186         -13.8716    -3.5515   -11.3672 H       
 187 H187         -20.8797     2.1026    -9.3683 H       
 188 H188         -22.8831     2.0539    -7.2443 H       
 189 H189         -22.4092     4.5179    -8.9801 H       
 190 H190         -23.8463     4.2606    -7.9619 H       
 191 H191         -22.3959     4.0887    -5.9581 H       
 192 H192         -20.9588     4.3461    -6.9762 H       
 193 H193         -21.8395     6.5610    -7.6596 H       
 194 H194         -23.2767     6.3037    -6.6414 H       
 195 H195         -21.8262     6.1318    -4.6376 H       
 196 H196         -20.3891     6.3892    -5.6557 H       
 197 H197         -22.6183     8.3002    -5.3974 H       
 198 H198         -21.1419     8.4384    -4.6445 H       
 199 H199         -25.1945     2.5965    -8.5193 H       
 200 H200         -25.0692     1.7134   -11.3000 H       
 201 H201         -26.3724     0.0308    -9.1139 H       
 202 H202         -26.6025    -0.2275   -10.8599 H       
 203 H203         -23.8980    -0.2477    -9.4479 H       
 204 H204         -25.6280    -2.5463   -10.4681 H       
 205 H205         -23.9838    -2.7002    -9.8038 H       
 206 H206         -25.3190    -2.1593    -8.7584 H       
 207 H207         -24.7610    -1.0431   -12.2656 H       
 208 H208         -23.8343     0.4148   -11.8365 H       
 209 H209         -23.1168    -1.1970   -11.6013 H       
 210 H210         -27.6514     1.3623   -11.9868 H       
 211 H211         -29.3813     3.1213   -10.4245 H       
 212 H212         -28.4607     3.8288   -13.2460 H       
 213 H213         -29.8086     4.6206   -12.3948 H       
 214 H214         -26.9446     4.4817   -11.3520 H       
 215 H215         -28.4787     6.7753   -12.6569 H       
 216 H216         -26.8513     6.8876   -11.9448 H       
 217 H217         -27.1233     5.8838   -13.3893 H       
 218 H218         -29.3965     6.0582   -10.4465 H       
 219 H219         -28.6949     4.6559    -9.6042 H       
 220 H220         -27.7691     6.1706    -9.7344 H       
 221 H221         -31.5882     3.3829   -11.9491 H       
 222 H222         -31.9681     1.0222   -13.6254 H       
 223 H223         -33.4403     1.3947   -10.9792 H       
 224 H224         -33.8992     0.2184   -12.2338 H       
 225 H225         -31.6652    -0.8427   -12.0561 H       
 226 H226         -31.2062     0.3335   -10.8015 H       
 227 H227         -33.0594    -0.4747    -9.3659 H       
 228 H228         -33.5184    -1.6509   -10.6205 H       
 229 H229         -31.2843    -2.7121   -10.4428 H       
 230 H230         -30.8254    -1.5359    -9.1882 H       
 231 H231         -31.6191    -3.5951    -8.2299 H       
 232 H232         -32.6905    -2.3738    -7.8745 H       
 233 H233         -34.6080     1.0286   -14.1674 H       
 234 H234         -35.0589     3.7500   -15.1257 H       
 235 H235         -36.9298     2.7689   -16.3628 H       
 236 H236         -35.4943     1.7357   -16.5627 H       
 237 H237         -37.4289     0.4663   -15.9694 H       
 238 H238         -38.2005     4.2748   -13.3079 H       
 239 H239          19.9608    -3.0653     9.0675 H       
 240 H240          20.7089    -2.4440     7.5767 H       
 241 H241          21.1312    -1.7267     9.1500 H       
 242 H242          18.8082    -0.8943     9.3940 H       
 243 H243          19.5562    -0.2730     7.9031 H       
 244 H244          18.4419    -2.0628     6.5980 H       
 245 H245          17.6938    -2.6842     8.0889 H       
 246 H246          16.5412    -0.5131     8.4153 H       
 247 H247          17.2892     0.1082     6.9245 H       
 248 H248          16.1748    -1.6817     5.6194 H       
 249 H249          15.4268    -2.3030     7.1103 H       
 250 H250          14.2741    -0.1319     7.4367 H       
 251 H251          15.0222     0.4894     5.9459 H       
 252 H252          13.9078    -1.3005     4.6408 H       
 253 H253          13.1598    -1.9218     6.1317 H       
 254 H254          12.0071     0.2493     6.4581 H       
 255 H255          12.7552     0.8706     4.9672 H       
 256 H256          11.6408    -0.9193     3.6622 H       
 257 H257          10.8927    -1.5406     5.1531 H       
 258 H258           9.7401     0.6305     5.4795 H       
 259 H259          10.4881     1.2518     3.9886 H       
 260 H260           9.3737    -0.5381     2.6836 H       
 261 H261           8.6257    -1.1594     4.1744 H       
 262 H262           7.4731     1.0116     4.5009 H       
 263 H263           8.2211     1.6329     3.0100 H       
 264 H264           7.1067    -0.1569     1.7050 H       
 265 H265           6.3587    -0.7782     3.1958 H       
 266 H266           5.2060     1.3928     3.5223 H       
 267 H267           5.9541     2.0141     2.0314 H       
 268 H268           4.0917    -0.3971     2.2172 H       
 269 H269           4.8397     0.2242     0.7263 H       
@<TRIPOS>BOND
   1    1    2 2
   2    1    4 1
   3    1   11 am
   4    3  109 am
   5    3    4 1
   6    3  126 1
   7    4    5 1
   8    4  127 1
   9    5    6 1
  10    5  128 1
  11    5  129 1
  12    6    7 2
  13    6    8 1
  14    8  130 1
  15    9   10 2
  16    9   12 1
  17    9   18 am
  18   11   12 1
  19   11  131 1
  20   12   13 1
  21   12  132 1
  22   13   14 1
  23   13   15 1
  24   13  133 1
  25   14  134 1
  26   14  135 1
  27   14  136 1
  28   15  137 1
  29   16   17 2
  30   16   19 1
  31   16   29 am
  32   18   19 1
  33   18  138 1
  34   19   20 1
  35   19  139 1
  36   20   21 1
  37   20  140 1
  38   20  141 1
  39   21   22 1
  40   21  142 1
  41   21  143 1
  42   22   23 1
  43   22  144 1
  44   22  145 1
  45   23   24 1
  46   23  146 1
  47   24   25 2
  48   24   26 1
  49   25  147 1
  50   26  148 1
  51   26  149 1
  52   27   28 2
  53   27   30 1
  54   27   38 am
  55   29   30 1
  56   29  150 1
  57   30   31 1
  58   30  151 1
  59   31   32 1
  60   31  152 1
  61   31  153 1
  62   32   33 1
  63   32  154 1
  64   32  155 1
  65   33   34 2
  66   33   35 am
  67   35  156 1
  68   35  157 1
  69   36   37 2
  70   36   39 1
  71   36   47 am
  72   38   39 1
  73   38  158 1
  74   39   40 1
  75   39  159 1
  76   40   41 1
  77   40  160 1
  78   40  161 1
  79   41   42 1
  80   41  162 1
  81   41  163 1
  82   42   43 2
  83   42   44 am
  84   44  164 1
  85   44  165 1
  86   45   46 2
  87   45   48 1
  88   45   59 am
  89   47   48 1
  90   47  166 1
  91   48   49 1
  92   48  167 1
  93   49   50 1
  94   49  168 1
  95   49  169 1
  96   50   51 ar
  97   50   56 ar
  98   51   52 ar
  99   51  170 1
 100   52   53 ar
 101   52  171 1
 102   53   54 1
 103   53   55 ar
 104   54  172 1
 105   55   56 ar
 106   55  173 1
 107   56  174 1
 108   57   58 2
 109   57   60 1
 110   57   70 am
 111   59   60 1
 112   59  175 1
 113   60   61 1
 114   60  176 1
 115   61   62 1
 116   61  177 1
 117   61  178 1
 118   62   63 1
 119   62  179 1
 120   62  180 1
 121   63   64 1
 122   63  181 1
 123   63  182 1
 124   64   65 1
 125   64  183 1
 126   65   66 2
 127   65   67 1
 128   66  184 1
 129   67  185 1
 130   67  186 1
 131   68   69 2
 132   68   71 1
 133   68   79 am
 134   70   71 1
 135   70  187 1
 136   71   72 1
 137   71  188 1
 138   72   73 1
 139   72  189 1
 140   72  190 1
 141   73   74 1
 142   73  191 1
 143   73  192 1
 144   74   75 1
 145   74  193 1
 146   74  194 1
 147   75   76 1
 148   75  195 1
 149   75  196 1
 150   76  197 1
 151   76  198 1
 152   77   78 2
 153   77   80 1
 154   77   87 am
 155   79   80 1
 156   79  199 1
 157   80   81 1
 158   80  200 1
 159   81   82 1
 160   81  201 1
 161   81  202 1
 162   82   83 1
 163   82   84 1
 164   82  203 1
 165   83  204 1
 166   83  205 1
 167   83  206 1
 168   84  207 1
 169   84  208 1
 170   84  209 1
 171   85   86 2
 172   85   88 1
 173   85   95 am
 174   87   88 1
 175   87  210 1
 176   88   89 1
 177   88  211 1
 178   89   90 1
 179   89  212 1
 180   89  213 1
 181   90   91 1
 182   90   92 1
 183   90  214 1
 184   91  215 1
 185   91  216 1
 186   91  217 1
 187   92  218 1
 188   92  219 1
 189   92  220 1
 190   93   94 2
 191   93   96 1
 192   93  104 am
 193   95   96 1
 194   95  221 1
 195   96   97 1
 196   96  222 1
 197   97   98 1
 198   97  223 1
 199   97  224 1
 200   98   99 1
 201   98  225 1
 202   98  226 1
 203   99  100 1
 204   99  227 1
 205   99  228 1
 206  100  101 1
 207  100  229 1
 208  100  230 1
 209  101  231 1
 210  101  232 1
 211  102  103 2
 212  102  105 1
 213  102  108 1
 214  104  105 1
 215  104  233 1
 216  105  106 1
 217  105  234 1
 218  106  107 1
 219  106  235 1
 220  106  236 1
 221  107  237 1
 222  108  238 1
 223  109  110 2
 224  109  125 1
 225  111  112 1
 226  111  239 1
 227  111  240 1
 228  111  241 1
 229  112  113 1
 230  112  242 1
 231  112  243 1
 232  113  114 1
 233  113  244 1
 234  113  245 1
 235  114  115 1
 236  114  246 1
 237  114  247 1
 238  115  116 1
 239  115  248 1
 240  115  249 1
 241  116  117 1
 242  116  250 1
 243  116  251 1
 244  117  118 1
 245  117  252 1
 246  117  253 1
 247  118  119 1
 248  118  254 1
 249  118  255 1
 250  119  120 1
 251  119  256 1
 252  119  257 1
 253  120  121 1
 254  120  258 1
 255  120  259 1
 256  121  122 1
 257  121  260 1
 258  121  261 1
 259  122  123 1
 260  122  262 1
 261  122  263 1
 262  123  124 1
 263  123  264 1
 264  123  265 1
 265  124  125 1
 266  124  266 1
 267  124  267 1
 268  125  268 1
 269  125  269 1

#	End of record

