#	Name: ASD01912494
#	Creating user name:	WinNT
#	Creation time:	15. 06. 2019 19:59

#	Modifying user name:	WinNT
#	Modification time:	15. 06. 2019 19:59

#	Program:	/corina/corina34_cracker 3.40 0067  02.08.2006

@<TRIPOS>MOLECULE
ASD01912494
  39   41    0    0    0
SMALL
NO_CHARGES


@<TRIPOS>ATOM
   1 C1             0.4401     0.6416     1.0635 C.ar    
   2 C2            -0.0133     0.0014    -0.0809 C.ar    
   3 C3             0.7244     0.0772    -1.2536 C.ar    
   4 C4             1.9078     0.7894    -1.2791 C.ar    
   5 C5             2.3576     1.4260    -0.1370 C.ar    
   6 C6             1.6241     1.3525     1.0328 C.ar    
   7 O7            -1.1775    -0.6989    -0.0532 O.3     
   8 C8            -1.1102    -2.0505    -0.1499 C.ar    
   9 C9            -2.2706    -2.8052    -0.0422 C.ar    
  10 C10           -2.1928    -4.1849    -0.1426 C.ar    
  11 C11           -0.9515    -4.7651    -0.3484 C.ar    
  12 C12            0.1698    -3.9512    -0.4470 C.ar    
  13 N13            0.0596    -2.6347    -0.3514 N.ar    
  14 N14            1.4223    -4.5250    -0.6535 N.am    
  15 C15            2.4994    -3.7392    -0.8506 C.2     
  16 C16            3.8027    -4.3448    -1.1962 C.ar    
  17 C17            4.9200    -3.5337    -1.4010 C.ar    
  18 C18            6.1341    -4.1048    -1.7230 C.ar    
  19 C19            6.2460    -5.4782    -1.8435 C.ar    
  20 C20            5.1417    -6.2893    -1.6417 C.ar    
  21 C21            3.9226    -5.7307    -1.3135 C.ar    
  22 Cl22           5.2921    -8.0119    -1.7958 Cl      
  23 O23            2.3990    -2.5325    -0.7442 O.2     
  24 C24            3.6494     2.2015    -0.1674 C.3     
  25 H25           -0.1345     0.5879     1.9764 H       
  26 H26            0.3739    -0.4205    -2.1457 H       
  27 H27            2.4823     0.8486    -2.1916 H       
  28 H28            1.9774     1.8510     1.9233 H       
  29 H29           -3.2231    -2.3223     0.1186 H       
  30 H30           -3.0804    -4.7949    -0.0619 H       
  31 H31           -0.8569    -5.8378    -0.4308 H       
  32 H32            1.5192    -5.4902    -0.6553 H       
  33 H33            4.8343    -2.4612    -1.3081 H       
  34 H34            6.9991    -3.4779    -1.8816 H       
  35 H35            7.1985    -5.9199    -2.0964 H       
  36 H36            3.0619    -6.3637    -1.1559 H       
  37 H37            3.4458     3.2358    -0.4444 H       
  38 H38            4.1130     2.1738     0.8187 H       
  39 H39            4.3237     1.7555    -0.8985 H       
@<TRIPOS>BOND
   1    1    2 ar
   2    1    6 ar
   3    1   25 1
   4    2    3 ar
   5    2    7 1
   6    3    4 ar
   7    3   26 1
   8    4    5 ar
   9    4   27 1
  10    5    6 ar
  11    5   24 1
  12    6   28 1
  13    7    8 1
  14    8    9 ar
  15    8   13 ar
  16    9   10 ar
  17    9   29 1
  18   10   11 ar
  19   10   30 1
  20   11   12 ar
  21   11   31 1
  22   12   13 ar
  23   12   14 1
  24   14   15 am
  25   14   32 1
  26   15   16 1
  27   15   23 2
  28   16   17 ar
  29   16   21 ar
  30   17   18 ar
  31   17   33 1
  32   18   19 ar
  33   18   34 1
  34   19   20 ar
  35   19   35 1
  36   20   21 ar
  37   20   22 1
  38   21   36 1
  39   24   37 1
  40   24   38 1
  41   24   39 1

#	End of record

