#	Name: ASD01811289
#	Creating user name:	WinNT
#	Creation time:	15. 06. 2019 19:26

#	Modifying user name:	WinNT
#	Modification time:	15. 06. 2019 19:26

#	Program:	/corina/corina34_cracker 3.40 0067  02.08.2006

@<TRIPOS>MOLECULE
ASD01811289
  54   57    0    0    0
SMALL
NO_CHARGES


@<TRIPOS>ATOM
   1 C1             2.4610     1.6036     4.6896 C.2     
   2 N2             1.7645     1.0239     5.6270 N.2     
   3 C3             1.4584     1.9221     6.5764 C.2     
   4 C4             1.9827     3.1084     6.2202 C.2     
   5 N5             2.6233     2.9154     5.0197 N.am    
   6 C6             3.2861     3.8463     4.3052 C.2     
   7 S7             2.7277     5.4645     4.2809 S.2     
   8 N8             4.3885     3.5033     3.6098 N.am    
   9 C9             5.0120     4.4412     2.7799 C.ar    
  10 C10            6.3967     4.5625     2.7856 C.ar    
  11 C11            7.0174     5.4875     1.9676 C.ar    
  12 C12            6.2665     6.2971     1.1395 C.ar    
  13 C13            4.8755     6.1829     1.1260 C.ar    
  14 C14            4.2493     5.2457     1.9478 C.ar    
  15 C15            7.2239     3.6826     3.6871 C.3     
  16 C16            4.0687     7.0490     0.2399 C.2     
  17 O17            3.1798     6.5678    -0.4353 O.2     
  18 N18            4.3188     8.3721     0.1807 N.am    
  19 C19            5.4553     8.9523     0.9091 C.3     
  20 C20            4.9444    10.0988     1.7874 C.3     
  21 C21            4.1778    11.0989     0.9189 C.3     
  22 C22            2.9721    10.4044     0.2816 C.3     
  23 C23            3.4639     9.2606    -0.6182 C.3     
  24 C24            3.7028    12.2455     1.7738 C.ar    
  25 C25            4.1184    13.5343     1.4899 C.ar    
  26 C26            3.6875    14.5885     2.2683 C.ar    
  27 C27            2.8296    14.3526     3.3445 C.ar    
  28 C28            2.4139    13.0495     3.6250 C.ar    
  29 C29            2.8487    12.0052     2.8354 C.ar    
  30 C30            2.3787    15.4421     4.1571 C.1     
  31 N31            2.0209    16.3063     4.8017 N.1     
  32 H32            2.8481     1.1236     3.8030 H       
  33 H33            0.8884     1.7260     7.4725 H       
  34 H34            1.9133     4.0347     6.7712 H       
  35 H35            4.7496     2.6062     3.6848 H       
  36 H36            8.0936     5.5774     1.9765 H       
  37 H37            6.7552     7.0192     0.5022 H       
  38 H38            3.1736     5.1500     1.9386 H       
  39 H39            7.4880     2.7668     3.1583 H       
  40 H40            8.1328     4.2105     3.9757 H       
  41 H41            6.6492     3.4342     4.5793 H       
  42 H42            5.9156     8.1888     1.5362 H       
  43 H43            6.1878     9.3349     0.1985 H       
  44 H44            4.2813     9.7009     2.5556 H       
  45 H45            5.7895    10.5998     2.2595 H       
  46 H46            4.8345    11.4778     0.1358 H       
  47 H47            2.3276    10.0037     1.0640 H       
  48 H48            2.4134    11.1230    -0.3180 H       
  49 H49            4.0374     9.6678    -1.4509 H       
  50 H50            2.6099     8.7005    -0.9993 H       
  51 H51            4.7819    13.7154     0.6572 H       
  52 H52            4.0132    15.5940     2.0461 H       
  53 H53            1.7504    12.8600     4.4559 H       
  54 H54            2.5246    10.9973     3.0487 H       
@<TRIPOS>BOND
   1    1    2 2
   2    1    5 1
   3    1   32 1
   4    2    3 1
   5    3    4 2
   6    3   33 1
   7    4    5 1
   8    4   34 1
   9    5    6 am
  10    6    7 2
  11    6    8 am
  12    8    9 1
  13    8   35 1
  14    9   10 ar
  15    9   14 ar
  16   10   11 ar
  17   10   15 1
  18   11   12 ar
  19   11   36 1
  20   12   13 ar
  21   12   37 1
  22   13   14 ar
  23   13   16 1
  24   14   38 1
  25   15   39 1
  26   15   40 1
  27   15   41 1
  28   16   17 2
  29   16   18 am
  30   18   19 1
  31   18   23 1
  32   19   20 1
  33   19   42 1
  34   19   43 1
  35   20   21 1
  36   20   44 1
  37   20   45 1
  38   21   22 1
  39   21   24 1
  40   21   46 1
  41   22   23 1
  42   22   47 1
  43   22   48 1
  44   23   49 1
  45   23   50 1
  46   24   25 ar
  47   24   29 ar
  48   25   26 ar
  49   25   51 1
  50   26   27 ar
  51   26   52 1
  52   27   28 ar
  53   27   30 1
  54   28   29 ar
  55   28   53 1
  56   29   54 1
  57   30   31 3

#	End of record

