#	Name: ASD03330288
#	Creating user name:	WinNT
#	Creation time:	15. 06. 2019 20:36

#	Modifying user name:	WinNT
#	Modification time:	15. 06. 2019 20:36

#	Program:	/corina/corina34_cracker 3.40 0067  02.08.2006

@<TRIPOS>MOLECULE
ASD03330288
  62   65    0    0    0
SMALL
NO_CHARGES


@<TRIPOS>ATOM
   1 C1            -1.9040     1.7110    -2.9553 C.3     
   2 N2            -1.6885     0.3525    -2.4380 N.3     
   3 C3            -0.7850    -0.4147    -3.3144 C.3     
   4 C4             0.4368     0.4282    -3.5746 C.2     
   5 N5             0.4967     1.7706    -3.3264 N.pl3   
   6 C6            -0.6256     2.5419    -2.7844 C.3     
   7 C7             1.6416     0.0578    -4.0713 C.2     
   8 N8             2.4257     1.1679    -4.1202 N.2     
   9 C9             1.7397     2.1968    -3.6724 C.2     
  10 C10            2.2372     3.5844    -3.5643 C.2     
  11 C11            1.6237     4.5251    -2.8219 C.2     
  12 C12            2.0318    -1.3016    -4.4838 C.2     
  13 O13            1.2364    -2.2170    -4.3913 O.2     
  14 C14            3.6583    -2.8827    -5.3738 C.3     
  15 N15            3.2703    -1.5308    -4.9636 N.am    
  16 C16            4.1452    -3.6660    -4.1530 C.3     
  17 C17            3.0532    -3.6710    -3.0814 C.3     
  18 C18            4.4630    -5.1051    -4.5641 C.3     
  19 C19            5.4064    -3.0053    -3.5929 C.3     
  20 C20           -2.9658    -0.3497    -2.2546 C.3     
  21 C21            4.7660    -2.8001    -6.3922 C.2     
  22 O22            5.3720    -1.7609    -6.5461 O.2     
  23 N23            5.0831    -3.8810    -7.1321 N.am    
  24 C24            6.2124    -3.8254    -8.0637 C.3     
  25 S25            2.4630     6.0073    -2.9223 S.3     
  26 C26            3.6667     5.3135    -3.9983 C.2     
  27 C27            3.3879     4.0308    -4.2192 C.2     
  28 C28           -3.6121    -0.5755    -3.5971 C.ar    
  29 C29           -3.3552    -1.7275    -4.3237 C.ar    
  30 C30           -4.4823     0.3611    -4.1323 C.ar    
  31 N31           -5.0314     0.1284    -5.3137 N.ar    
  32 C32           -4.7597    -0.9766    -5.9786 C.ar    
  33 N33           -3.9414    -1.8915    -5.4987 N.ar    
  34 H34           -2.1636     1.6591    -4.0126 H       
  35 H35           -2.7187     2.1828    -2.4060 H       
  36 H36           -0.4944    -1.3429    -2.8223 H       
  37 H37           -1.2864    -0.6375    -4.2563 H       
  38 H38           -0.7225     3.4818    -3.3277 H       
  39 H39           -0.4566     2.7435    -1.7266 H       
  40 H40            0.7257     4.3642    -2.2438 H       
  41 H41            2.7989    -3.3901    -5.8120 H       
  42 H42            3.9047    -0.8008    -5.0373 H       
  43 H43            2.1547    -4.1417    -3.4805 H       
  44 H44            3.4001    -4.2291    -2.2118 H       
  45 H45            2.8268    -2.6458    -2.7886 H       
  46 H46            5.1446    -5.0979    -5.4146 H       
  47 H47            4.9299    -5.6269    -3.7287 H       
  48 H48            3.5409    -5.6157    -4.8417 H       
  49 H49            5.1800    -1.9800    -3.3001 H       
  50 H50            5.7533    -3.5633    -2.7233 H       
  51 H51            6.1844    -3.0017    -4.3564 H       
  52 H52           -2.7862    -1.3102    -1.7716 H       
  53 H53           -3.6255     0.2531    -1.6305 H       
  54 H54            4.5636    -4.6959    -7.0477 H       
  55 H55            6.3143    -4.7859    -8.5688 H       
  56 H56            6.0359    -3.0434    -8.8022 H       
  57 H57            7.1271    -3.6055    -7.5131 H       
  58 H58            4.5085     5.8467    -4.4146 H       
  59 H59            3.9911     3.3961    -4.8514 H       
  60 H60           -2.6854    -2.4809    -3.9362 H       
  61 H61           -4.7095     1.2685    -3.5924 H       
  62 H62           -5.2234    -1.1388    -6.9404 H       
@<TRIPOS>BOND
   1    1    2 1
   2    1    6 1
   3    1   34 1
   4    1   35 1
   5    2    3 1
   6    2   20 1
   7    3    4 1
   8    3   36 1
   9    3   37 1
  10    4    5 1
  11    4    7 2
  12    5    6 1
  13    5    9 1
  14    6   38 1
  15    6   39 1
  16    7    8 1
  17    7   12 1
  18    8    9 2
  19    9   10 1
  20   10   11 2
  21   10   27 1
  22   11   25 1
  23   11   40 1
  24   12   13 2
  25   12   15 am
  26   14   15 1
  27   14   21 1
  28   14   16 1
  29   14   41 1
  30   15   42 1
  31   16   17 1
  32   16   18 1
  33   16   19 1
  34   17   43 1
  35   17   44 1
  36   17   45 1
  37   18   46 1
  38   18   47 1
  39   18   48 1
  40   19   49 1
  41   19   50 1
  42   19   51 1
  43   20   28 1
  44   20   52 1
  45   20   53 1
  46   21   22 2
  47   21   23 am
  48   23   24 1
  49   23   54 1
  50   24   55 1
  51   24   56 1
  52   24   57 1
  53   25   26 1
  54   26   27 2
  55   26   58 1
  56   27   59 1
  57   28   29 ar
  58   28   30 ar
  59   29   33 ar
  60   29   60 1
  61   30   31 ar
  62   30   61 1
  63   31   32 ar
  64   32   33 ar
  65   32   62 1

#	End of record

