#	Name: ASD03430585
#	Creating user name:	WinNT
#	Creation time:	15. 06. 2019 20:41

#	Modifying user name:	WinNT
#	Modification time:	15. 06. 2019 20:41

#	Program:	/corina/corina34_cracker 3.40 0067  02.08.2006

@<TRIPOS>MOLECULE
ASD03430585
  46   50    0    0    0
SMALL
NO_CHARGES


@<TRIPOS>ATOM
   1 N1            -0.0161     1.3395     0.0094 N.am    
   2 C2             0.0021    -0.0041     0.0020 C.2     
   3 C3             1.4548    -0.4299    -0.0141 C.3     
   4 C4             2.2198     0.8735    -0.0144 C.ar    
   5 C5             3.5643     1.1698    -0.0261 C.ar    
   6 C6             3.9803     2.4906    -0.0234 C.ar    
   7 C7             3.0416     3.5073    -0.0089 C.ar    
   8 C8             1.6943     3.2123     0.0032 C.ar    
   9 C9             1.2684     1.8853     0.0001 C.ar    
  10 O10           -0.9637    -0.7377     0.0077 O.2     
  11 C11           -1.2434     2.1395     0.0197 C.3     
  12 C12           -1.6569     2.4066     1.4440 C.ar    
  13 C13           -1.2735     3.5846     2.0572 C.ar    
  14 C14           -1.6596     3.8208     3.3675 C.ar    
  15 C15           -2.4203     2.8590     4.0150 C.ar    
  16 C16           -2.7658     1.7053     3.3375 C.ar    
  17 N17           -2.3849     1.5164     2.0891 N.ar    
  18 O18            2.6804    -3.4588     4.5850 O.3     
  19 C19            2.8383    -2.7460     5.8165 C.3     
  20 C20            1.6744    -1.7546     5.9505 C.3     
  21 O21            1.7180    -0.8591     4.8342 O.3     
  22 C22            1.9013    -1.4198     3.6064 C.ar    
  23 C23            2.3839    -2.7176     3.4825 C.ar    
  24 C24            1.6008    -0.6827     2.4713 C.ar    
  25 C25            1.7829    -1.2344     1.2172 C.ar    
  26 C26            2.2667    -2.5277     1.0911 C.ar    
  27 C27            2.5670    -3.2690     2.2237 C.ar    
  28 O28            2.4461    -3.0692    -0.1433 O.3     
  29 Br29           5.8255     2.9037    -0.0387 Br      
  30 H30            1.6750    -1.0022    -0.9153 H       
  31 H31            4.2935     0.3732    -0.0369 H       
  32 H32            3.3658     4.5375    -0.0068 H       
  33 H33            0.9678     4.0113     0.0147 H       
  34 H34           -1.0643     3.0861    -0.4902 H       
  35 H35           -2.0364     1.5950    -0.4929 H       
  36 H36           -0.6804     4.3117     1.5224 H       
  37 H37           -1.3744     4.7321     3.8722 H       
  38 H38           -2.7384     3.0096     5.0361 H       
  39 H39           -3.3580     0.9514     3.8348 H       
  40 H40            2.8224    -3.4465     6.6514 H       
  41 H41            3.7839    -2.2038     5.8088 H       
  42 H42            0.7285    -2.2961     5.9506 H       
  43 H43            1.7763    -1.1912     6.8780 H       
  44 H44            1.2242     0.3249     2.5672 H       
  45 H45            2.9442    -4.2762     2.1253 H       
  46 H46            3.3248    -2.9150    -0.5165 H       
@<TRIPOS>BOND
   1    1    2 am
   2    1    9 1
   3    1   11 1
   4    2    3 1
   5    2   10 2
   6    3    4 1
   7    3   25 1
   8    3   30 1
   9    4    5 ar
  10    4    9 ar
  11    5    6 ar
  12    5   31 1
  13    6    7 ar
  14    6   29 1
  15    7    8 ar
  16    7   32 1
  17    8    9 ar
  18    8   33 1
  19   11   12 1
  20   11   34 1
  21   11   35 1
  22   12   13 ar
  23   12   17 ar
  24   13   14 ar
  25   13   36 1
  26   14   15 ar
  27   14   37 1
  28   15   16 ar
  29   15   38 1
  30   16   17 ar
  31   16   39 1
  32   18   19 1
  33   18   23 1
  34   19   20 1
  35   19   40 1
  36   19   41 1
  37   20   21 1
  38   20   42 1
  39   20   43 1
  40   21   22 1
  41   22   23 ar
  42   22   24 ar
  43   23   27 ar
  44   24   25 ar
  45   24   44 1
  46   25   26 ar
  47   26   27 ar
  48   26   28 1
  49   27   45 1
  50   28   46 1

#	End of record

