#	Name: ASD05503024
#	Creating user name:	WinNT
#	Creation time:	15. 06. 2019 21:01

#	Modifying user name:	WinNT
#	Modification time:	15. 06. 2019 21:01

#	Program:	/corina/corina34_cracker 3.40 0067  02.08.2006

@<TRIPOS>MOLECULE
ASD05503024
  45   46    0    0    0
SMALL
NO_CHARGES


@<TRIPOS>ATOM
   1 C1            -0.1504     1.3616     0.4409 C.ar    
   2 C2            -0.0924    -0.0174     0.2844 C.ar    
   3 C3             1.1379    -0.6539     0.2039 C.ar    
   4 C4             2.3067     0.0898     0.2800 C.ar    
   5 C5             2.2418     1.4691     0.4365 C.ar    
   6 C6             1.0154     2.0996     0.5164 C.ar    
   7 N7            -1.2735    -0.7639     0.2086 N.am    
   8 C8            -1.3330    -1.8523    -0.5842 C.2     
   9 C9            -2.5617    -2.7248    -0.5750 C.3     
  10 O10           -0.3977    -2.1294    -1.3049 O.2     
  11 C11           -2.3720    -3.8830    -1.5567 C.3     
  12 C12           -3.6194    -4.7689    -1.5474 C.3     
  13 N13            3.5487    -0.5479     0.1997 N.am    
  14 C14            4.5817     0.0632    -0.4136 C.2     
  15 C15            5.8639    -0.6508    -0.5897 C.ar    
  16 O16            4.4588     1.2016    -0.8219 O.2     
  17 C17            6.9357    -0.0207    -1.2245 C.ar    
  18 C18            8.1297    -0.6926    -1.3852 C.ar    
  19 C19            8.2664    -1.9881    -0.9189 C.ar    
  20 C20            7.2078    -2.6186    -0.2893 C.ar    
  21 C21            6.0101    -1.9560    -0.1169 C.ar    
  22 S22            9.7950    -2.8390    -1.1283 S.o2    
  23 O23            9.4327    -4.2130    -1.1385 O.2     
  24 O24           10.3829    -2.2279    -2.2686 O.2     
  25 C25           10.7427    -2.4416     0.3665 C.3     
  26 H26           -1.1078     1.8580     0.4992 H       
  27 H27            1.1857    -1.7260     0.0825 H       
  28 H28            3.1512     2.0486     0.4962 H       
  29 H29            0.9676     3.1716     0.6378 H       
  30 H30           -2.0494    -0.4981     0.7265 H       
  31 H31           -2.7185    -3.1210     0.4283 H       
  32 H32           -3.4286    -2.1348    -0.8723 H       
  33 H33           -2.2152    -3.4869    -2.5600 H       
  34 H34           -1.5051    -4.4730    -1.2594 H       
  35 H35           -3.4844    -5.5939    -2.2467 H       
  36 H36           -3.7763    -5.1650    -0.5441 H       
  37 H37           -4.4864    -4.1788    -1.8446 H       
  38 H38            3.6668    -1.4301     0.5853 H       
  39 H39            6.8302     0.9903    -1.5892 H       
  40 H40            8.9597    -0.2065    -1.8764 H       
  41 H41            7.3208    -3.6302     0.0718 H       
  42 H42            5.1848    -2.4491     0.3750 H       
  43 H43           10.1996    -2.7909     1.2447 H       
  44 H44           11.7149    -2.9325     0.3216 H       
  45 H45           10.8832    -1.3627     0.4316 H       
@<TRIPOS>BOND
   1    1    2 ar
   2    1    6 ar
   3    1   26 1
   4    2    3 ar
   5    2    7 1
   6    3    4 ar
   7    3   27 1
   8    4    5 ar
   9    4   13 1
  10    5    6 ar
  11    5   28 1
  12    6   29 1
  13    7    8 am
  14    7   30 1
  15    8    9 1
  16    8   10 2
  17    9   11 1
  18    9   31 1
  19    9   32 1
  20   11   12 1
  21   11   33 1
  22   11   34 1
  23   12   35 1
  24   12   36 1
  25   12   37 1
  26   13   14 am
  27   13   38 1
  28   14   15 1
  29   14   16 2
  30   15   17 ar
  31   15   21 ar
  32   17   18 ar
  33   17   39 1
  34   18   19 ar
  35   18   40 1
  36   19   20 ar
  37   19   22 1
  38   20   21 ar
  39   20   41 1
  40   21   42 1
  41   22   23 2
  42   22   24 2
  43   22   25 1
  44   25   43 1
  45   25   44 1
  46   25   45 1

#	End of record

