#	Name: ASD01880551
#	Creating user name:	WinNT
#	Creation time:	15. 06. 2019 19:40

#	Modifying user name:	WinNT
#	Modification time:	15. 06. 2019 19:40

#	Program:	/corina/corina34_cracker 3.40 0067  02.08.2006

@<TRIPOS>MOLECULE
ASD01880551
  54   57    0    0    0
SMALL
NO_CHARGES


@<TRIPOS>ATOM
   1 N1            -0.0159     1.3129     0.0159 N.ar    
   2 C2             0.0023    -0.0043     0.0054 C.ar    
   3 N3             1.1311    -0.6841    -0.0155 N.ar    
   4 C4             2.3028    -0.0621    -0.0270 C.ar    
   5 C5             2.3320     1.3207    -0.0167 C.ar    
   6 C6             1.1182     2.0083     0.0055 C.ar    
   7 C7             3.6419     2.0658    -0.0286 C.3     
   8 O8             4.0977     2.2064    -1.3756 O.3     
   9 C9             5.2726     2.8590    -1.5636 C.ar    
  10 C10            5.7742     3.0310    -2.8501 C.ar    
  11 C11            6.9625     3.6918    -3.0388 C.ar    
  12 C12            7.6744     4.1946    -1.9447 C.ar    
  13 C13            7.1660     4.0194    -0.6546 C.ar    
  14 C14            5.9709     3.3600    -0.4714 C.ar    
  15 C15            7.7662     4.0413    -4.2665 C.3     
  16 N16            8.9528     4.7601    -3.7885 N.am    
  17 C17            8.8958     4.8463    -2.4485 C.2     
  18 O18            9.7330     5.3858    -1.7512 O.2     
  19 Cl19           3.7808    -0.9723    -0.0540 Cl      
  20 N20            1.0943     3.3937     0.0166 N.3     
  21 C21            0.5186     3.8966    -1.1617 C.3     
  22 C22            0.6612     5.4314    -1.2494 C.3     
  23 C23           -0.3272     6.0739    -0.3102 C.3     
  24 O24            0.2222     6.3160     1.0012 O.3     
  25 C25            1.0482     5.2702     1.5450 C.3     
  26 C26            0.4829     3.9022     1.2600 C.3     
  27 C27           10.8026     7.2901    -5.9200 C.3     
  28 C28            9.6843     6.7311    -5.0381 C.3     
  29 C29           10.0236     5.2953    -4.6330 C.3     
  30 H30           -0.9342    -0.5422     0.0146 H       
  31 H31            3.5025     3.0527     0.4127 H       
  32 H32            4.3810     1.5106     0.5490 H       
  33 H33            5.2294     2.6449    -3.6989 H       
  34 H34            7.7079     4.4034     0.1970 H       
  35 H35            5.5783     3.2253     0.5257 H       
  36 H36            8.0641     3.1330    -4.7904 H       
  37 H37            7.1816     4.6811    -4.9275 H       
  38 H38            1.0122     3.4432    -2.0213 H       
  39 H39           -0.5395     3.6354    -1.1811 H       
  40 H40            1.6734     5.7200    -0.9662 H       
  41 H41            0.4600     5.7584    -2.2695 H       
  42 H42           -0.6508     7.0235    -0.7364 H       
  43 H43           -1.1947     5.4212    -0.2127 H       
  44 H44            2.0440     5.3408     1.1074 H       
  45 H45            1.1260     5.4043     2.6239 H       
  46 H46           -0.5978     3.9711     1.1353 H       
  47 H47            0.7173     3.2298     2.0852 H       
  48 H48           10.9026     6.6743    -6.8138 H       
  49 H49           10.5609     8.3130    -6.2086 H       
  50 H50           11.7412     7.2811    -5.3658 H       
  51 H51            9.5843     7.3469    -4.1442 H       
  52 H52            8.7457     6.7401    -5.5923 H       
  53 H53           10.9622     5.2863    -4.0788 H       
  54 H54           10.1236     4.6795    -5.5268 H       
@<TRIPOS>BOND
   1    1    2 ar
   2    1    6 ar
   3    2    3 ar
   4    2   30 1
   5    3    4 ar
   6    4    5 ar
   7    4   19 1
   8    5    6 ar
   9    5    7 1
  10    6   20 1
  11    7    8 1
  12    7   31 1
  13    7   32 1
  14    8    9 1
  15    9   10 ar
  16    9   14 ar
  17   10   11 ar
  18   10   33 1
  19   11   12 ar
  20   11   15 1
  21   12   13 ar
  22   12   17 1
  23   13   14 ar
  24   13   34 1
  25   14   35 1
  26   15   16 1
  27   15   36 1
  28   15   37 1
  29   16   17 am
  30   16   29 1
  31   17   18 2
  32   20   21 1
  33   20   26 1
  34   21   22 1
  35   21   38 1
  36   21   39 1
  37   22   23 1
  38   22   40 1
  39   22   41 1
  40   23   24 1
  41   23   42 1
  42   23   43 1
  43   24   25 1
  44   25   26 1
  45   25   44 1
  46   25   45 1
  47   26   46 1
  48   26   47 1
  49   27   28 1
  50   27   48 1
  51   27   49 1
  52   27   50 1
  53   28   29 1
  54   28   51 1
  55   28   52 1
  56   29   53 1
  57   29   54 1

#	End of record

