#	Name: ASD01918124
#	Creating user name:	WinNT
#	Creation time:	15. 06. 2019 20:10

#	Modifying user name:	WinNT
#	Modification time:	15. 06. 2019 20:10

#	Program:	/corina/corina34_cracker 3.40 0067  02.08.2006

@<TRIPOS>MOLECULE
ASD01918124
  37   39    0    0    0
SMALL
NO_CHARGES


@<TRIPOS>ATOM
   1 N1            -0.0167     1.3975     0.0026 N.am    
   2 C2             0.0032    -0.0035     0.0095 C.2     
   3 C3             2.4250    -0.1112    -0.5873 C.3     
   4 C4             2.1908     1.3338    -1.0425 C.3     
   5 C5             1.3008     2.0633    -0.0302 C.3     
   6 C6            -0.9932    -0.8795     0.2614 C.2     
   7 C7            -0.4625    -2.1712     0.1450 C.2     
   8 N8             0.8083    -2.0732    -0.1666 N.2     
   9 N9             1.1335    -0.7210    -0.2612 N.pl3   
  10 C10           -1.2233    -3.4566     0.3445 C.3     
  11 O11           -1.7841    -3.8765    -0.9010 O.3     
  12 C12           -1.1694     2.0955     0.0191 C.2     
  13 O13           -2.2312     1.5150    -0.0640 O.2     
  14 C14           -1.1393     3.5973     0.1409 C.3     
  15 C15           -2.5066    -5.0275    -0.8956 C.ar    
  16 C16           -3.0795    -5.4938    -2.0699 C.ar    
  17 C17           -3.8135    -6.6641    -2.0617 C.ar    
  18 C18           -3.9774    -7.3706    -0.8845 C.ar    
  19 C19           -3.4077    -6.9077     0.2873 C.ar    
  20 C20           -2.6676    -5.7412     0.2832 C.ar    
  21 F21           -2.2706    -0.5670     0.5707 F       
  22 H22            2.9022    -0.6739    -1.3896 H       
  23 H23            3.0646    -0.1167     0.2953 H       
  24 H24            3.1484     1.8487    -1.1196 H       
  25 H25            1.7032     1.3315    -2.0174 H       
  26 H26            1.1781     3.1031    -0.3331 H       
  27 H27            1.7582     2.0186     0.9582 H       
  28 H28           -0.5461    -4.2258     0.7158 H       
  29 H29           -2.0231    -3.2970     1.0676 H       
  30 H30           -0.1129     3.9284     0.2990 H       
  31 H31           -1.5283     4.0439    -0.7742 H       
  32 H32           -1.7548     3.9057     0.9859 H       
  33 H33           -2.9521    -4.9422    -2.9896 H       
  34 H34           -4.2600    -7.0273    -2.9755 H       
  35 H35           -4.5516    -8.2852    -0.8801 H       
  36 H36           -3.5378    -7.4609     1.2057 H       
  37 H37           -2.2229    -5.3801     1.1987 H       
@<TRIPOS>BOND
   1    1    2 1
   2    1    5 1
   3    1   12 am
   4    2    6 2
   5    2    9 1
   6    3    4 1
   7    3    9 1
   8    3   22 1
   9    3   23 1
  10    4    5 1
  11    4   24 1
  12    4   25 1
  13    5   26 1
  14    5   27 1
  15    6    7 1
  16    6   21 1
  17    7    8 2
  18    7   10 1
  19    8    9 1
  20   10   11 1
  21   10   28 1
  22   10   29 1
  23   11   15 1
  24   12   13 2
  25   12   14 1
  26   14   30 1
  27   14   31 1
  28   14   32 1
  29   15   16 ar
  30   15   20 ar
  31   16   17 ar
  32   16   33 1
  33   17   18 ar
  34   17   34 1
  35   18   19 ar
  36   18   35 1
  37   19   20 ar
  38   19   36 1
  39   20   37 1

#	End of record

