#	Name: ASD05430196
#	Creating user name:	WinNT
#	Creation time:	15. 06. 2019 20:59

#	Modifying user name:	WinNT
#	Modification time:	15. 06. 2019 20:59

#	Program:	/corina/corina34_cracker 3.40 0067  02.08.2006

@<TRIPOS>MOLECULE
ASD05430196
  58   63    0    0    0
SMALL
NO_CHARGES


@<TRIPOS>ATOM
   1 C1            -5.2059    -0.5659     1.7888 C.ar    
   2 C2            -6.2148    -0.9715     0.9235 C.ar    
   3 C3            -6.3659    -0.2963    -0.2892 C.ar    
   4 C4            -5.5068     0.7501    -0.5752 C.ar    
   5 C5            -4.5306     1.0948     0.3413 C.ar    
   6 N6            -4.4088     0.4359     1.4768 N.ar    
   7 C7            -5.0499     3.8901     1.1900 C.3     
   8 C8            -3.6602     3.2652     1.1666 C.3     
   9 C9            -3.5930     2.2349     0.0375 C.3     
  10 C10           -5.0293     5.3363     1.6583 C.3     
  11 C11           -3.8257     5.7026     2.5294 C.3     
  12 N12           -2.6215     5.4407     1.7380 N.pl3   
  13 C13           -2.5959     4.3074     0.9471 C.2     
  14 N14           -1.6892     4.1637     0.0503 N.2     
  15 C15           -0.4081     5.7586     2.6829 C.ar    
  16 C16            0.3115     6.5987     3.5121 C.ar    
  17 C17            1.2722     6.0784     4.3584 C.ar    
  18 C18            1.5139     4.7151     4.3756 C.ar    
  19 C19            0.7925     3.8747     3.5446 C.ar    
  20 C20           -0.1677     4.3973     2.6992 C.ar    
  21 F21            2.4531     4.2054     5.2022 F       
  22 C22           -1.4597     6.3265     1.7649 C.3     
  23 C23           -0.9034     6.4268     0.3396 C.3     
  24 O24           -0.6885     5.1230    -0.1899 O.3     
  25 C25           -5.2565    -1.4625     3.0114 C.3     
  26 C26           -6.1255    -2.6484     2.5337 C.3     
  27 N27           -6.9417    -2.0395     1.4606 N.3     
  28 C28           -7.2696    -3.0273     0.4238 C.3     
  29 C29           -5.2892     6.3518     0.5334 C.3     
  30 O30           -6.1485     7.0123     1.4850 O.3     
  31 C31           -6.3667     5.8100     2.2512 C.3     
  32 H32           -7.1364    -0.5847    -0.9889 H       
  33 H33           -5.5977     1.2919    -1.5051 H       
  34 H34           -5.4713     3.8506     0.1855 H       
  35 H35           -5.6856     3.3114     1.8601 H       
  36 H36           -3.4778     2.7648     2.1176 H       
  37 H37           -2.5749     1.8551    -0.0477 H       
  38 H38           -3.8852     2.7052    -0.9014 H       
  39 H39           -3.8703     6.7577     2.7992 H       
  40 H40           -3.8188     5.0884     3.4299 H       
  41 H41            0.1231     7.6620     3.4983 H       
  42 H42            1.8345     6.7349     5.0058 H       
  43 H43            0.9802     2.8112     3.5572 H       
  44 H44           -0.7305     3.7420     2.0509 H       
  45 H45           -1.7586     7.3150     2.1138 H       
  46 H46           -1.6152     6.9605    -0.2902 H       
  47 H47            0.0412     6.9705     0.3571 H       
  48 H48           -4.2568    -1.8015     3.2828 H       
  49 H49           -5.7311    -0.9486     3.8473 H       
  50 H50           -5.5019    -3.4499     2.1377 H       
  51 H51           -6.7594    -3.0134     3.3417 H       
  52 H52           -7.8329    -3.8476     0.8687 H       
  53 H53           -7.8700    -2.5533    -0.3527 H       
  54 H54           -6.3492    -3.4138    -0.0138 H       
  55 H55           -4.4114     6.9340     0.2532 H       
  56 H56           -5.8181     5.9350    -0.3237 H       
  57 H57           -7.2266     5.2268     1.9217 H       
  58 H58           -6.3414     5.9635     3.3300 H       
@<TRIPOS>BOND
   1    1    2 ar
   2    1   25 1
   3    1    6 ar
   4    2    3 ar
   5    2   27 1
   6    3    4 ar
   7    3   32 1
   8    4    5 ar
   9    4   33 1
  10    5    6 ar
  11    5    9 1
  12    7    8 1
  13    7   10 1
  14    7   34 1
  15    7   35 1
  16    8    9 1
  17    8   13 1
  18    8   36 1
  19    9   37 1
  20    9   38 1
  21   10   11 1
  22   10   29 1
  23   10   31 1
  24   11   12 1
  25   11   39 1
  26   11   40 1
  27   12   13 1
  28   12   22 1
  29   13   14 2
  30   14   24 1
  31   15   16 ar
  32   15   20 ar
  33   15   22 1
  34   16   17 ar
  35   16   41 1
  36   17   18 ar
  37   17   42 1
  38   18   19 ar
  39   18   21 1
  40   19   20 ar
  41   19   43 1
  42   20   44 1
  43   22   23 1
  44   22   45 1
  45   23   24 1
  46   23   46 1
  47   23   47 1
  48   25   26 1
  49   25   48 1
  50   25   49 1
  51   26   27 1
  52   26   50 1
  53   26   51 1
  54   27   28 1
  55   28   52 1
  56   28   53 1
  57   28   54 1
  58   29   30 1
  59   29   55 1
  60   29   56 1
  61   30   31 1
  62   31   57 1
  63   31   58 1

#	End of record

