#	Name: ASD01884600
#	Creating user name:	WinNT
#	Creation time:	15. 06. 2019 19:48

#	Modifying user name:	WinNT
#	Modification time:	15. 06. 2019 19:48

#	Program:	/corina/corina34_cracker 3.40 0067  02.08.2006

@<TRIPOS>MOLECULE
ASD01884600
  50   52    0    0    0
SMALL
NO_CHARGES


@<TRIPOS>ATOM
   1 C1             0.7761     1.0529     1.9441 C.2     
   2 C2             0.4990    -0.1537     1.3733 C.2     
   3 C3             1.2961    -0.6118     0.3124 C.2     
   4 C4             2.3259     0.1421    -0.1324 C.2     
   5 N5             2.6022     1.3490     0.4401 N.am    
   6 C6             1.8541     1.8137     1.4589 C.2     
   7 O7             2.1126     2.8948     1.9615 O.2     
   8 C8             3.6343     2.0843    -0.0190 C.2     
   9 C9             1.0040    -1.9435    -0.3297 C.3     
  10 C10            1.6760    -3.0389     0.4575 C.ar    
  11 C11            1.0036    -3.6533     1.4977 C.ar    
  12 C12            1.6174    -4.6577     2.2208 C.ar    
  13 C13            2.9095    -5.0497     1.9025 C.ar    
  14 C14            3.5820    -4.4316     0.8583 C.ar    
  15 C15            2.9618    -3.4316     0.1346 C.ar    
  16 O16            3.5157    -6.0372     2.6126 O.3     
  17 C17            4.8465    -6.3889     2.2291 C.3     
  18 N18            3.5180     3.4237    -0.1135 N.am    
  19 O19            4.6695     1.5396    -0.3477 O.2     
  20 C20            2.1950     4.0356    -0.2605 C.3     
  21 C21            4.6624     4.2309    -0.0713 C.ar    
  22 C22            4.5393     5.6133    -0.1137 C.ar    
  23 C23            5.6676     6.4083    -0.0721 C.ar    
  24 C24            6.9239     5.8261     0.0121 C.ar    
  25 C25            7.0477     4.4451     0.0545 C.ar    
  26 C26            5.9199     3.6491     0.0187 C.ar    
  27 O27            8.0346     6.6095     0.0526 O.3     
  28 C28            9.2957     5.9431     0.1392 C.3     
  29 H29            0.1706     1.4229     2.7583 H       
  30 H30           -0.3252    -0.7513     1.7339 H       
  31 H31            2.9362    -0.2147    -0.9489 H       
  32 H32           -0.0727    -2.1127    -0.3417 H       
  33 H33            1.3835    -1.9452    -1.3515 H       
  34 H34           -0.0022    -3.3475     1.7454 H       
  35 H35            1.0919    -5.1371     3.0335 H       
  36 H36            4.5880    -4.7350     0.6085 H       
  37 H37            3.4849    -2.9501    -0.6784 H       
  38 H38            4.8483    -6.7294     1.1937 H       
  39 H39            5.4948    -5.5181     2.3263 H       
  40 H40            5.2117    -7.1876     2.8748 H       
  41 H41            1.7308     4.1373     0.7205 H       
  42 H42            2.2986     5.0198    -0.7172 H       
  43 H43            1.5713     3.4049    -0.8939 H       
  44 H44            3.5613     6.0666    -0.1797 H       
  45 H45            5.5720     7.4835    -0.1055 H       
  46 H46            8.0261     3.9925     0.1201 H       
  47 H47            6.0163     2.5739     0.0521 H       
  48 H48           10.0964     6.6823     0.1639 H       
  49 H49            9.3276     5.3425     1.0483 H       
  50 H50            9.4251     5.2961    -0.7284 H       
@<TRIPOS>BOND
   1    1    2 2
   2    1    6 1
   3    1   29 1
   4    2    3 1
   5    2   30 1
   6    3    4 2
   7    3    9 1
   8    4    5 1
   9    4   31 1
  10    5    6 am
  11    5    8 am
  12    6    7 2
  13    8   18 am
  14    8   19 2
  15    9   10 1
  16    9   32 1
  17    9   33 1
  18   10   11 ar
  19   10   15 ar
  20   11   12 ar
  21   11   34 1
  22   12   13 ar
  23   12   35 1
  24   13   14 ar
  25   13   16 1
  26   14   15 ar
  27   14   36 1
  28   15   37 1
  29   16   17 1
  30   17   38 1
  31   17   39 1
  32   17   40 1
  33   18   20 1
  34   18   21 1
  35   20   41 1
  36   20   42 1
  37   20   43 1
  38   21   22 ar
  39   21   26 ar
  40   22   23 ar
  41   22   44 1
  42   23   24 ar
  43   23   45 1
  44   24   25 ar
  45   24   27 1
  46   25   26 ar
  47   25   46 1
  48   26   47 1
  49   27   28 1
  50   28   48 1
  51   28   49 1
  52   28   50 1

#	End of record

