#	Name: ASD01814446
#	Creating user name:	WinNT
#	Creation time:	15. 06. 2019 19:32

#	Modifying user name:	WinNT
#	Modification time:	15. 06. 2019 19:32

#	Program:	/corina/corina34_cracker 3.40 0067  02.08.2006

@<TRIPOS>MOLECULE
ASD01814446
  62   67    0    0    0
SMALL
NO_CHARGES


@<TRIPOS>ATOM
   1 C1            -0.0204     1.3733     0.1433 C.ar    
   2 C2             0.0112    -0.0082     0.2488 C.ar    
   3 C3             1.2040    -0.6965     0.1506 C.ar    
   4 C4             2.3903    -0.0009    -0.0565 C.ar    
   5 C5             2.3522     1.4027    -0.1628 C.ar    
   6 C6             1.1462     2.0827    -0.0623 C.ar    
   7 N7             3.5986    -0.6600    -0.1585 N.pl3   
   8 N8             4.7188    -0.0650    -0.3487 N.2     
   9 C9             4.8417     1.2318    -0.4672 C.2     
  10 C10            3.6367     2.0929    -0.3821 C.2     
  11 C11            5.9524     2.1616    -0.6832 C.2     
  12 N12            5.4087     3.3973    -0.7119 N.am    
  13 N13            4.0254     3.3239    -0.5296 N.2     
  14 C14            3.6020    -2.1204    -0.0426 C.3     
  15 C15            5.0125    -2.6322    -0.1822 C.ar    
  16 C16            5.8081    -2.7745     0.9403 C.ar    
  17 C17            7.1005    -3.2432     0.8183 C.ar    
  18 C18            7.6035    -3.5731    -0.4385 C.ar    
  19 C19            6.7977    -3.4278    -1.5659 C.ar    
  20 C20            5.5050    -2.9632    -1.4317 C.ar    
  21 O21            7.1317     1.8770    -0.8108 O.2     
  22 C22            6.1622     4.6385    -0.9063 C.3     
  23 C23            8.9925    -4.0771    -0.5759 C.ar    
  24 C24            5.6554     5.3516    -2.1615 C.3     
  25 C25            6.4424     6.6479    -2.3645 C.3     
  26 C26            6.2501     7.5569    -1.1489 C.3     
  27 C27            6.7569     6.8438     0.1064 C.3     
  28 C28            5.9700     5.5475     0.3093 C.3     
  29 Cl29           1.2230    -2.4271     0.2859 Cl      
  30 C30            9.8058    -4.2253     0.5452 C.ar    
  31 N31           11.0389    -4.6731     0.4247 N.ar    
  32 C32           11.5506    -4.9962    -0.7472 C.ar    
  33 C33           10.8070    -4.8766    -1.9073 C.ar    
  34 C34            9.5039    -4.4161    -1.8317 C.ar    
  35 C35           12.9678    -5.5031    -0.8235 C.3     
  36 O36            6.4433     4.8815     1.4817 O.3     
  37 H37           -0.9621     1.8969     0.2179 H       
  38 H38           -0.9076    -0.5525     0.4099 H       
  39 H39            1.1206     3.1593    -0.1440 H       
  40 H40            3.2056    -2.4085     0.9310 H       
  41 H41            2.9806    -2.5487    -0.8291 H       
  42 H42            5.4174    -2.5182     1.9140 H       
  43 H43            7.7210    -3.3537     1.6954 H       
  44 H44            7.1827    -3.6817    -2.5424 H       
  45 H45            4.8795    -2.8501    -2.3048 H       
  46 H46            7.2208     4.4065    -1.0227 H       
  47 H47            5.7924     4.7040    -3.0275 H       
  48 H48            4.5968     5.5836    -2.0452 H       
  49 H49            7.5010     6.4159    -2.4809 H       
  50 H50            6.0813     7.1559    -3.2587 H       
  51 H51            6.8107     8.4804    -1.2935 H       
  52 H52            5.1915     7.7889    -1.0325 H       
  53 H53            7.8155     6.6118    -0.0100 H       
  54 H54            6.6199     7.4914     0.9724 H       
  55 H55            4.9113     5.7796     0.4257 H       
  56 H56            9.4221    -3.9706     1.5221 H       
  57 H57           11.2371    -5.1437    -2.8613 H       
  58 H58            8.9005    -4.3130    -2.7215 H       
  59 H59           12.9713    -6.5885    -0.7239 H       
  60 H60           13.4020    -5.2249    -1.7838 H       
  61 H61           13.5551    -5.0624    -0.0179 H       
  62 H62            6.3524     5.4004     2.2926 H       
@<TRIPOS>BOND
   1    1    2 ar
   2    1    6 ar
   3    1   37 1
   4    2    3 ar
   5    2   38 1
   6    3    4 ar
   7    3   29 1
   8    4    5 ar
   9    4    7 1
  10    5    6 ar
  11    5   10 1
  12    6   39 1
  13    7    8 1
  14    7   14 1
  15    8    9 2
  16    9   10 1
  17    9   11 1
  18   10   13 2
  19   11   12 am
  20   11   21 2
  21   12   13 1
  22   12   22 1
  23   14   15 1
  24   14   40 1
  25   14   41 1
  26   15   16 ar
  27   15   20 ar
  28   16   17 ar
  29   16   42 1
  30   17   18 ar
  31   17   43 1
  32   18   19 ar
  33   18   23 1
  34   19   20 ar
  35   19   44 1
  36   20   45 1
  37   22   24 1
  38   22   28 1
  39   22   46 1
  40   23   30 ar
  41   23   34 ar
  42   24   25 1
  43   24   47 1
  44   24   48 1
  45   25   26 1
  46   25   49 1
  47   25   50 1
  48   26   27 1
  49   26   51 1
  50   26   52 1
  51   27   28 1
  52   27   53 1
  53   27   54 1
  54   28   36 1
  55   28   55 1
  56   30   31 ar
  57   30   56 1
  58   31   32 ar
  59   32   33 ar
  60   32   35 1
  61   33   34 ar
  62   33   57 1
  63   34   58 1
  64   35   59 1
  65   35   60 1
  66   35   61 1
  67   36   62 1

#	End of record

