#	Name: ASD02560568
#	Creating user name:	WinNT
#	Creation time:	15. 06. 2019 20:25

#	Modifying user name:	WinNT
#	Modification time:	15. 06. 2019 20:25

#	Program:	/corina/corina34_cracker 3.40 0067  02.08.2006

@<TRIPOS>MOLECULE
ASD02560568
  79   84    0    0    0
SMALL
NO_CHARGES


@<TRIPOS>ATOM
   1 N1            -0.2024     1.2605    -0.7175 N.2     
   2 N2            -0.1711    -0.0229    -0.6607 N.2     
   3 C3             0.8259     1.7060    -1.3841 C.2     
   4 N4             1.5594     0.6168    -1.7760 N.pl3   
   5 C5             0.8872    -0.4735    -1.2927 C.2     
   6 S6             1.3543    -2.1618    -1.4831 S.3     
   7 C7            -0.0007    -2.9652    -0.5918 C.3     
   8 C8             0.1932    -4.4594    -0.6237 C.2     
   9 O9             1.1531    -4.9342    -1.1929 O.2     
  10 N10           -0.7000    -5.2679    -0.0195 N.am    
  11 C11            2.7473     0.6187    -2.5164 C.ar    
  12 Br12           1.2294     3.5180    -1.7442 Br      
  13 C13            3.9652     0.6795    -1.8758 C.ar    
  14 C14            5.1524     0.6815    -2.6023 C.ar    
  15 C15            5.1440     0.6235    -3.9626 C.ar    
  16 C16            3.9225     0.5604    -4.6542 C.ar    
  17 C17            2.7079     0.5524    -3.9248 C.ar    
  18 C18           -0.5654    -6.6528    -0.1180 C.ar    
  19 C19           -1.6863    -7.4701     0.0023 C.ar    
  20 C20           -1.5564    -8.8380    -0.0950 C.ar    
  21 C21           -0.2977    -9.4046    -0.3147 C.ar    
  22 C22            0.8246    -8.5811    -0.4349 C.ar    
  23 C23            0.6872    -7.2140    -0.3420 C.ar    
  24 C24           -0.1543   -10.8699    -0.4191 C.2     
  25 O25           -1.1317   -11.5854    -0.3139 O.2     
  26 Cl26          -3.2488    -6.7646     0.2758 Cl      
  27 N27            1.0600   -11.4148    -0.6310 N.am    
  28 C28            6.4435     0.6276    -4.7258 C.3     
  29 C29            1.4883     0.4889    -4.6171 C.ar    
  30 C30            3.8827     0.4997    -6.0581 C.ar    
  31 C31            2.6819     0.4395    -6.6958 C.ar    
  32 C32            1.4876     0.4359    -5.9775 C.ar    
  33 C33            1.2023   -12.8692    -0.7345 C.3     
  34 C34            7.3629     1.8377    -4.5489 C.3     
  35 C35            7.7368     0.4943    -3.9192 C.3     
  36 C36            2.4490   -13.2024    -1.5566 C.3     
  37 C37            1.3376   -13.4602     0.6451 C.2     
  38 O38            1.3172   -12.7404     1.6154 O.2     
  39 O39            1.4807   -14.7863     0.7961 O.3     
  40 C40            1.6054   -15.2855     2.1539 C.3     
  41 C41            2.2619   -12.7184    -2.9714 C.ar    
  42 C42            2.6554   -11.4399    -3.3211 C.ar    
  43 C43            1.7024   -13.5555    -3.9189 C.ar    
  44 C44            1.5302   -13.1144    -5.2167 C.ar    
  45 C45            1.9194   -11.8301    -5.5689 C.ar    
  46 C46            2.4850   -10.9938    -4.6174 C.ar    
  47 O47            1.7515   -11.3939    -6.8449 O.3     
  48 C48            1.7586   -16.8075     2.1256 C.3     
  49 H49           -0.0091    -2.6220     0.4427 H       
  50 H50           -0.9486    -2.7117    -1.0664 H       
  51 H51           -1.4364    -4.8868     0.4837 H       
  52 H52            3.9993     0.7266    -0.7974 H       
  53 H53            6.0957     0.7302    -2.0786 H       
  54 H54           -2.4258    -9.4718    -0.0013 H       
  55 H55            1.7984    -9.0161    -0.6047 H       
  56 H56            1.5546    -6.5773    -0.4348 H       
  57 H57            1.8398   -10.8440    -0.7149 H       
  58 H58            6.4126     0.1584    -5.7092 H       
  59 H59            0.5552     0.4818    -4.0733 H       
  60 H60            4.8002     0.5012    -6.6277 H       
  61 H61            2.6541     0.3933    -7.7744 H       
  62 H62            0.5480     0.3873    -6.5077 H       
  63 H63            0.3222   -13.2865    -1.2239 H       
  64 H64            7.9371     2.1644    -5.4158 H       
  65 H65            7.0278     2.6309    -3.8806 H       
  66 H66            7.6478     0.4037    -2.8367 H       
  67 H67            8.5571    -0.0627    -4.3719 H       
  68 H68            3.3166   -12.7111    -1.1162 H       
  69 H69            2.6047   -14.2812    -1.5592 H       
  70 H70            2.4817   -14.8408     2.6255 H       
  71 H71            0.7135   -15.0206     2.7218 H       
  72 H72            3.0960   -10.7893    -2.5802 H       
  73 H73            1.3999   -14.5553    -3.6444 H       
  74 H74            1.0935   -13.7688    -5.9565 H       
  75 H75            2.7887    -9.9936    -4.8891 H       
  76 H76            0.8989   -10.9669    -7.0057 H       
  77 H77            1.8523   -17.1823     3.1449 H       
  78 H78            0.8823   -17.2523     1.6541 H       
  79 H79            2.6505   -17.0724     1.5578 H       
@<TRIPOS>BOND
   1    1    2 1
   2    1    3 2
   3    2    5 2
   4    3    4 1
   5    3   12 1
   6    4    5 1
   7    4   11 1
   8    5    6 1
   9    6    7 1
  10    7    8 1
  11    7   49 1
  12    7   50 1
  13    8    9 2
  14    8   10 am
  15   10   18 1
  16   10   51 1
  17   11   13 ar
  18   11   17 ar
  19   13   14 ar
  20   13   52 1
  21   14   15 ar
  22   14   53 1
  23   15   16 ar
  24   15   28 1
  25   16   17 ar
  26   16   30 ar
  27   17   29 ar
  28   18   19 ar
  29   18   23 ar
  30   19   20 ar
  31   19   26 1
  32   20   21 ar
  33   20   54 1
  34   21   22 ar
  35   21   24 1
  36   22   23 ar
  37   22   55 1
  38   23   56 1
  39   24   25 2
  40   24   27 am
  41   27   33 1
  42   27   57 1
  43   28   34 1
  44   28   35 1
  45   28   58 1
  46   29   32 ar
  47   29   59 1
  48   30   31 ar
  49   30   60 1
  50   31   32 ar
  51   31   61 1
  52   32   62 1
  53   33   36 1
  54   33   37 1
  55   33   63 1
  56   34   35 1
  57   34   64 1
  58   34   65 1
  59   35   66 1
  60   35   67 1
  61   36   41 1
  62   36   68 1
  63   36   69 1
  64   37   38 2
  65   37   39 1
  66   39   40 1
  67   40   48 1
  68   40   70 1
  69   40   71 1
  70   41   42 ar
  71   41   43 ar
  72   42   46 ar
  73   42   72 1
  74   43   44 ar
  75   43   73 1
  76   44   45 ar
  77   44   74 1
  78   45   46 ar
  79   45   47 1
  80   46   75 1
  81   47   76 1
  82   48   77 1
  83   48   78 1
  84   48   79 1

#	End of record

