#	Name: ASD03240415
#	Creating user name:	WinNT
#	Creation time:	15. 06. 2019 20:34

#	Modifying user name:	WinNT
#	Modification time:	15. 06. 2019 20:34

#	Program:	/corina/corina34_cracker 3.40 0067  02.08.2006

@<TRIPOS>MOLECULE
ASD03240415
  44   47    0    0    0
SMALL
NO_CHARGES


@<TRIPOS>ATOM
   1 C1            -0.0667     1.4726    -0.0590 C.ar    
   2 C2            -0.3927     0.4847     0.8576 C.ar    
   3 C3             2.3502     0.4028    -1.3987 C.ar    
   4 C4             2.1107     1.7462    -1.1726 C.ar    
   5 C5             1.2672     2.1712     0.0016 C.3     
   6 C6             3.1220     0.0080    -2.4728 C.ar    
   7 C7             3.6601     0.9653    -3.3298 C.ar    
   8 C8             3.4162     2.3169    -3.0972 C.ar    
   9 C9             2.6430     2.7008    -2.0203 C.ar    
  10 C10            4.4915     0.5465    -4.4865 C.2     
  11 C11           -1.6253    -0.1343     0.7707 C.ar    
  12 N12           -2.4855     0.2046    -0.1696 N.ar    
  13 C13           -2.2094     1.1394    -1.0578 C.ar    
  14 C14           -0.9948     1.7985    -1.0361 C.ar    
  15 C15            5.0770     1.3736    -5.4000 C.2     
  16 N16            5.7404     0.6009    -6.2835 N.pl3   
  17 N17            5.5647    -0.7377    -5.9126 N.2     
  18 C18            4.8242    -0.7766    -4.8366 C.2     
  19 C19            1.0526     3.6854    -0.0462 C.3     
  20 C20            0.1962     4.1169     1.1460 C.3     
  21 C21            0.9088     3.7437     2.4475 C.3     
  22 C22            1.1235     2.2296     2.4953 C.3     
  23 C23            1.9798     1.7980     1.3031 C.3     
  24 H24            0.3078     0.2023     1.6296 H       
  25 H25            1.9362    -0.3384    -0.7311 H       
  26 H26            3.3086    -1.0412    -2.6482 H       
  27 H27            3.8311     3.0631    -3.7587 H       
  28 H28            2.4530     3.7484    -1.8393 H       
  29 H29           -1.8869    -0.9048     1.4808 H       
  30 H30           -2.9390     1.3897    -1.8137 H       
  31 H31           -0.7746     2.5634    -1.7660 H       
  32 H32            5.0194     2.4520    -5.4130 H       
  33 H33            6.2511     0.9177    -7.0449 H       
  34 H34            4.5151    -1.6683    -4.3115 H       
  35 H35            2.0174     4.1907    -0.0024 H       
  36 H36            0.5449     3.9513    -0.9734 H       
  37 H37            0.0433     5.1956     1.1120 H       
  38 H38           -0.7686     3.6116     1.1022 H       
  39 H39            1.8736     4.2490     2.4913 H       
  40 H40            0.2987     4.0511     3.2968 H       
  41 H41            1.6311     1.9636     3.4225 H       
  42 H42            0.1586     1.7243     2.4515 H       
  43 H43            2.1327     0.7193     1.3371 H       
  44 H44            2.9446     2.3033     1.3469 H       
@<TRIPOS>BOND
   1    1    2 ar
   2    1    5 1
   3    1   14 ar
   4    2   11 ar
   5    2   24 1
   6    3    4 ar
   7    3    6 ar
   8    3   25 1
   9    4    5 1
  10    4    9 ar
  11    5   19 1
  12    5   23 1
  13    6    7 ar
  14    6   26 1
  15    7    8 ar
  16    7   10 1
  17    8    9 ar
  18    8   27 1
  19    9   28 1
  20   10   15 2
  21   10   18 1
  22   11   12 ar
  23   11   29 1
  24   12   13 ar
  25   13   14 ar
  26   13   30 1
  27   14   31 1
  28   15   16 1
  29   15   32 1
  30   16   17 1
  31   16   33 1
  32   17   18 2
  33   18   34 1
  34   19   20 1
  35   19   35 1
  36   19   36 1
  37   20   21 1
  38   20   37 1
  39   20   38 1
  40   21   22 1
  41   21   39 1
  42   21   40 1
  43   22   23 1
  44   22   41 1
  45   22   42 1
  46   23   43 1
  47   23   44 1

#	End of record

