#	Name: ASD03091829
#	Creating user name:	WinNT
#	Creation time:	15. 06. 2019 20:31

#	Modifying user name:	WinNT
#	Modification time:	15. 06. 2019 20:31

#	Program:	/corina/corina34_cracker 3.40 0067  02.08.2006

@<TRIPOS>MOLECULE
ASD03091829
  48   52    0    0    0
SMALL
NO_CHARGES


@<TRIPOS>ATOM
   1 N1             4.5970    -0.3326    -0.7295 N.pl3   
   2 C2             3.7188    -1.3315    -1.0488 C.2     
   3 C3             2.5241    -0.8069    -1.3670 C.2     
   4 C4             2.6470     0.6467    -1.2414 C.ar    
   5 C5             1.7644     1.7136    -1.4341 C.ar    
   6 C6             2.1889     2.9931    -1.2302 C.ar    
   7 C7             3.5052     3.2471    -0.8283 C.ar    
   8 C8             4.3951     2.1981    -0.6323 C.ar    
   9 C9             3.9732     0.8910    -0.8371 C.ar    
  10 C10            3.9529     4.6435    -0.6109 C.ar    
  11 C11            3.0323     5.6861    -0.7066 C.ar    
  12 C12            3.4620     6.9842    -0.5012 C.ar    
  13 C13            4.8056     7.1999    -0.2051 C.ar    
  14 C14            5.6656     6.1137    -0.1258 C.ar    
  15 N15            5.2245     4.8880    -0.3218 N.ar    
  16 O16            5.2695     8.4602     0.0035 O.3     
  17 C17            3.8571    11.8601     0.7430 C.3     
  18 C18            4.8365    10.6808     0.8545 C.3     
  19 C19            4.3031     9.5127     0.0201 C.3     
  20 C20            4.0353     9.9811    -1.4131 C.3     
  21 C21            3.1101    11.2078    -1.3709 C.3     
  22 C22            1.9365    10.8826    -0.4184 C.3     
  23 C23            2.4301    11.3136     0.9784 C.3     
  24 N24            3.8516    12.2955    -0.6790 N.3     
  25 C25            3.1617    13.5833    -0.8327 C.3     
  26 H26            5.5201    -0.4661    -0.4631 H       
  27 H27            3.9517    -2.3861    -1.0455 H       
  28 H28            1.6402    -1.3537    -1.6605 H       
  29 H29            0.7474     1.5245    -1.7446 H       
  30 H30            1.5053     3.8157    -1.3801 H       
  31 H31            5.4101     2.3983    -0.3224 H       
  32 H32            1.9973     5.4826    -0.9384 H       
  33 H33            2.7715     7.8119    -0.5692 H       
  34 H34            6.7086     6.2748     0.1035 H       
  35 H35            4.1075    12.6682     1.4302 H       
  36 H36            5.8144    10.9815     0.4784 H       
  37 H37            4.9227    10.3752     1.8973 H       
  38 H38            3.3757     9.1465     0.4603 H       
  39 H39            4.9771    10.2503    -1.8911 H       
  40 H40            3.5545     9.1803    -1.9750 H       
  41 H41            2.7668    11.4974    -2.3641 H       
  42 H42            1.0506    11.4517    -0.7000 H       
  43 H43            1.7221     9.8140    -0.4319 H       
  44 H44            2.4583    10.4570     1.6518 H       
  45 H45            1.7868    12.0947     1.3836 H       
  46 H46            3.6704    14.3413    -0.2370 H       
  47 H47            3.1723    13.8783    -1.8819 H       
  48 H48            2.1306    13.4859    -0.4930 H       
@<TRIPOS>BOND
   1    1    2 1
   2    1    9 1
   3    1   26 1
   4    2    3 2
   5    2   27 1
   6    3    4 1
   7    3   28 1
   8    4    5 ar
   9    4    9 ar
  10    5    6 ar
  11    5   29 1
  12    6    7 ar
  13    6   30 1
  14    7    8 ar
  15    7   10 1
  16    8    9 ar
  17    8   31 1
  18   10   11 ar
  19   10   15 ar
  20   11   12 ar
  21   11   32 1
  22   12   13 ar
  23   12   33 1
  24   13   14 ar
  25   13   16 1
  26   14   15 ar
  27   14   34 1
  28   16   19 1
  29   17   18 1
  30   17   23 1
  31   17   24 1
  32   17   35 1
  33   18   19 1
  34   18   36 1
  35   18   37 1
  36   19   20 1
  37   19   38 1
  38   20   21 1
  39   20   39 1
  40   20   40 1
  41   21   22 1
  42   21   24 1
  43   21   41 1
  44   22   23 1
  45   22   42 1
  46   22   43 1
  47   23   44 1
  48   23   45 1
  49   24   25 1
  50   25   46 1
  51   25   47 1
  52   25   48 1

#	End of record

