#	Name: ASD01903272
#	Creating user name:	WinNT
#	Creation time:	15. 06. 2019 19:54

#	Modifying user name:	WinNT
#	Modification time:	15. 06. 2019 19:54

#	Program:	/corina/corina34_cracker 3.40 0067  02.08.2006

@<TRIPOS>MOLECULE
ASD01903272
  48   52    0    0    0
SMALL
NO_CHARGES


@<TRIPOS>ATOM
   1 C1             0.0036     1.3511    -0.0687 C.ar    
   2 C2            -0.0651     0.1005     0.5237 C.ar    
   3 C3             1.0538    -0.4115     1.1623 C.ar    
   4 C4             2.2096     0.3527     1.1849 C.ar    
   5 C5             2.2069     1.6022     0.5684 C.ar    
   6 N6             1.1137     2.0556    -0.0326 N.ar    
   7 C7             3.4340     2.4315     0.5840 C.2     
   8 O8             4.4378     2.0214     1.1332 O.2     
   9 N9             3.4376     3.6410    -0.0106 N.am    
  10 C10            4.5681     4.4572     0.0733 C.ar    
  11 C11            4.4402     5.8583    -0.0328 C.ar    
  12 C12            5.5963     6.6717     0.0550 C.ar    
  13 C13            6.8564     6.0680     0.2470 C.ar    
  14 C14            6.9486     4.6971     0.3468 C.ar    
  15 C15            5.8131     3.8981     0.2659 C.ar    
  16 N16            8.0096     6.8583     0.3299 N.am    
  17 C17            8.7644     7.2164    -0.7245 C.2     
  18 C18            9.8884     8.0448    -0.2395 C.ar    
  19 C19            9.7257     8.1356     1.1579 C.ar    
  20 C20            8.5051     7.3640     1.4738 C.2     
  21 O21            8.5571     6.9101    -1.8813 O.2     
  22 O22            8.0330     7.2064     2.5816 O.2     
  23 C23           11.8606     9.3984    -0.0838 C.ar    
  24 C24           11.7010     9.4874     1.2863 C.ar    
  25 C25           10.6360     8.8583     1.9121 C.ar    
  26 C26           10.9578     8.6788    -0.8512 C.ar    
  27 C27           11.1389     8.5862    -2.3444 C.3     
  28 C28            3.1868     6.4614    -0.2245 C.ar    
  29 C29            3.0987     7.8165    -0.3232 C.ar    
  30 C30            4.2361     8.6167    -0.2372 C.ar    
  31 C31            5.4672     8.0660    -0.0512 C.ar    
  32 H32           -0.8648     1.7510    -0.5709 H       
  33 H33           -0.9816    -0.4697     0.4886 H       
  34 H34            1.0252    -1.3836     1.6319 H       
  35 H35            3.0997    -0.0149     1.6738 H       
  36 H36            2.6552     3.9447    -0.4969 H       
  37 H37            7.9147     4.2371     0.4934 H       
  38 H38            5.9090     2.8254     0.3471 H       
  39 H39           12.6942     9.8932    -0.5599 H       
  40 H40           12.4112    10.0507     1.8734 H       
  41 H41           10.5161     8.9316     2.9829 H       
  42 H42           10.6116     9.4095    -2.8262 H       
  43 H43           12.2003     8.6437    -2.5859 H       
  44 H44           10.7360     7.6383    -2.7012 H       
  45 H45            2.2969     5.8533    -0.2937 H       
  46 H46            2.1333     8.2777    -0.4707 H       
  47 H47            4.1397     9.6893    -0.3193 H       
  48 H48            6.3404     8.6983     0.0133 H       
@<TRIPOS>BOND
   1    1    2 ar
   2    1    6 ar
   3    1   32 1
   4    2    3 ar
   5    2   33 1
   6    3    4 ar
   7    3   34 1
   8    4    5 ar
   9    4   35 1
  10    5    6 ar
  11    5    7 1
  12    7    8 2
  13    7    9 am
  14    9   10 1
  15    9   36 1
  16   10   11 ar
  17   10   15 ar
  18   11   12 ar
  19   11   28 ar
  20   12   13 ar
  21   12   31 ar
  22   13   14 ar
  23   13   16 1
  24   14   15 ar
  25   14   37 1
  26   15   38 1
  27   16   17 am
  28   16   20 am
  29   17   18 1
  30   17   21 2
  31   18   19 ar
  32   18   26 ar
  33   19   20 1
  34   19   25 ar
  35   20   22 2
  36   23   24 ar
  37   23   26 ar
  38   23   39 1
  39   24   25 ar
  40   24   40 1
  41   25   41 1
  42   26   27 1
  43   27   42 1
  44   27   43 1
  45   27   44 1
  46   28   29 ar
  47   28   45 1
  48   29   30 ar
  49   29   46 1
  50   30   31 ar
  51   30   47 1
  52   31   48 1

#	End of record

