#	Name: ASD01811463
#	Creating user name:	WinNT
#	Creation time:	15. 06. 2019 19:26

#	Modifying user name:	WinNT
#	Modification time:	15. 06. 2019 19:26

#	Program:	/corina/corina34_cracker 3.40 0067  02.08.2006

@<TRIPOS>MOLECULE
ASD01811463
  68   73    0    0    0
SMALL
NO_CHARGES


@<TRIPOS>ATOM
   1 C1            -7.3212     2.2130    -4.0017 C.1     
   2 C2            -6.3437     3.0073    -3.3203 C.ar    
   3 C3            -5.1728     2.4181    -2.8393 C.ar    
   4 C4            -4.2354     3.1892    -2.1837 C.ar    
   5 C5            -4.4536     4.5433    -2.0021 C.ar    
   6 C6            -5.6119     5.1336    -2.4758 C.ar    
   7 C7            -6.5546     4.3757    -3.1390 C.ar    
   8 N8            -8.0966     1.5829    -4.5423 N.1     
   9 N9            -2.4098     7.7982    -0.2276 N.am    
  10 C10           -1.8545     7.3097    -1.4971 C.3     
  11 C11           -2.9245     6.4837    -2.2179 C.3     
  12 C12           -3.4252     5.3791    -1.2845 C.3     
  13 C13           -4.0571     6.0077    -0.0404 C.3     
  14 C14           -2.9999     6.8284     0.7051 C.3     
  15 C15           -2.3735     9.1104     0.0781 C.2     
  16 C16           -3.0190     9.5994     1.3152 C.ar    
  17 C17           -3.9802    10.6109     1.2505 C.ar    
  18 C18           -4.5837    11.0685     2.4047 C.ar    
  19 C19           -4.2418    10.5307     3.6300 C.ar    
  20 C20           -3.2827     9.5193     3.7088 C.ar    
  21 C21           -2.6742     9.0484     2.5475 C.ar    
  22 O22           -1.8101     9.8917    -0.6632 O.2     
  23 C23           -2.9174     8.9449     5.0222 C.2     
  24 N24           -1.9979     7.9550     5.2343 N.pl3   
  25 C25           -1.9677     7.7274     6.5732 C.2     
  26 C26           -2.8607     8.5719     7.1456 C.2     
  27 N27           -3.4188     9.3041     6.1867 N.2     
  28 C28           -1.1336     6.7477     7.3574 C.3     
  29 C29           -3.1099     8.6067     8.6345 C.3     
  30 C30           -2.5216     7.3228     9.2373 C.3     
  31 O31           -1.1958     7.1212     8.7410 O.3     
  32 C32           -4.3588    11.2042    -0.0820 C.3     
  33 C33           -5.3451    10.2750    -0.7924 C.3     
  34 C34           -4.9051    11.0372     4.8847 C.3     
  35 C35           -4.7378    12.5199     5.2232 C.3     
  36 C36           -6.0855    11.9970     4.7218 C.3     
  37 H37           -5.0015     1.3610    -2.9798 H       
  38 H38           -3.3293     2.7347    -1.8111 H       
  39 H39           -5.7761     6.1911    -2.3303 H       
  40 H40           -7.4561     4.8386    -3.5125 H       
  41 H41           -1.5658     8.1566    -2.1196 H       
  42 H42           -0.9832     6.6856    -1.2987 H       
  43 H43           -3.7569     7.1301    -2.4961 H       
  44 H44           -2.4957     6.0358    -3.1144 H       
  45 H45           -2.5879     4.7480    -0.9868 H       
  46 H46           -4.8788     6.6586    -0.3391 H       
  47 H47           -4.4344     5.2211     0.6130 H       
  48 H48           -2.2220     6.1650     1.0831 H       
  49 H49           -3.4669     7.3577     1.5356 H       
  50 H50           -5.3263    11.8507     2.3493 H       
  51 H51           -1.9352     8.2628     2.6026 H       
  52 H52           -1.4693     7.5022     4.5587 H       
  53 H53           -1.5304     5.7406     7.2294 H       
  54 H54           -0.1004     6.7841     7.0120 H       
  55 H55           -2.6204     9.4775     9.0707 H       
  56 H56           -4.1816     8.6486     8.8287 H       
  57 H57           -2.4927     7.4121    10.3233 H       
  58 H58           -3.1457     6.4731     8.9604 H       
  59 H59           -4.8239    12.1778     0.0727 H       
  60 H60           -3.4649    11.3218    -0.6946 H       
  61 H61           -4.8800     9.3014    -0.9471 H       
  62 H62           -6.2391    10.1574    -0.1798 H       
  63 H63           -5.6190    10.7041    -1.7562 H       
  64 H64           -4.9402    10.3322     5.7153 H       
  65 H65           -4.6632    12.7904     6.2764 H       
  66 H66           -4.1480    13.1290     4.5382 H       
  67 H67           -6.3822    12.2621     3.7070 H       
  68 H68           -6.8975    11.9235     5.4452 H       
@<TRIPOS>BOND
   1    1    2 1
   2    1    8 3
   3    2    3 ar
   4    2    7 ar
   5    3    4 ar
   6    3   37 1
   7    4    5 ar
   8    4   38 1
   9    5    6 ar
  10    5   12 1
  11    6    7 ar
  12    6   39 1
  13    7   40 1
  14    9   10 1
  15    9   14 1
  16    9   15 am
  17   10   11 1
  18   10   41 1
  19   10   42 1
  20   11   12 1
  21   11   43 1
  22   11   44 1
  23   12   13 1
  24   12   45 1
  25   13   14 1
  26   13   46 1
  27   13   47 1
  28   14   48 1
  29   14   49 1
  30   15   16 1
  31   15   22 2
  32   16   17 ar
  33   16   21 ar
  34   17   18 ar
  35   17   32 1
  36   18   19 ar
  37   18   50 1
  38   19   20 ar
  39   19   34 1
  40   20   21 ar
  41   20   23 1
  42   21   51 1
  43   23   24 1
  44   23   27 2
  45   24   25 1
  46   24   52 1
  47   25   26 2
  48   25   28 1
  49   26   27 1
  50   26   29 1
  51   28   31 1
  52   28   53 1
  53   28   54 1
  54   29   30 1
  55   29   55 1
  56   29   56 1
  57   30   31 1
  58   30   57 1
  59   30   58 1
  60   32   33 1
  61   32   59 1
  62   32   60 1
  63   33   61 1
  64   33   62 1
  65   33   63 1
  66   34   35 1
  67   34   36 1
  68   34   64 1
  69   35   36 1
  70   35   65 1
  71   35   66 1
  72   36   67 1
  73   36   68 1

#	End of record

