#	Name: ASD01913792
#	Creating user name:	WinNT
#	Creation time:	15. 06. 2019 20:02

#	Modifying user name:	WinNT
#	Modification time:	15. 06. 2019 20:02

#	Program:	/corina/corina34_cracker 3.40 0067  02.08.2006

@<TRIPOS>MOLECULE
ASD01913792
  48   50    0    0    0
SMALL
NO_CHARGES


@<TRIPOS>ATOM
   1 C1            -0.0095     1.3645    -0.1815 C.ar    
   2 C2            -0.0016     0.0034     0.0683 C.ar    
   3 C3             1.1920    -0.6578     0.2989 C.ar    
   4 C4             2.3834     0.0366     0.2813 C.ar    
   5 C5             2.3834     1.4111     0.0293 C.ar    
   6 C6             1.1742     2.0720    -0.2027 C.ar    
   7 C7             3.6164     2.1391     0.0098 C.1     
   8 C8             4.6273     2.7359    -0.0062 C.1     
   9 C9             5.8603     3.4638    -0.0256 C.ar    
  10 C10            5.8686     4.8439    -0.2779 C.ar    
  11 C11            8.2483     4.7810    -0.0454 C.ar    
  12 N12            8.2074     3.4791     0.1950 N.ar    
  13 C13            7.0723     2.8118     0.2119 C.ar    
  14 C14            7.0822     5.5016    -0.2858 C.ar    
  15 N15            9.4755     5.4395    -0.0514 N.am    
  16 C16            9.6432     6.7685    -0.0506 C.2     
  17 N17           10.9260     7.1539    -0.0574 N.am    
  18 C18           11.7883     5.9628    -0.0637 C.3     
  19 C19           10.7930     4.7863    -0.0533 C.3     
  20 O20            8.7151     7.5538    -0.0448 O.2     
  21 C21           12.6516     5.9315    -1.3266 C.3     
  22 C22           12.6657     5.9283     1.1892 C.3     
  23 C23           11.3954     8.5417    -0.0582 C.3     
  24 C24           10.8680     9.2577    -1.3033 C.3     
  25 C25           10.8831     9.2541     1.1952 C.3     
  26 H26           -0.9445     1.8731    -0.3647 H       
  27 H27           -0.9316    -0.5455     0.0837 H       
  28 H28            1.1904    -1.7201     0.4936 H       
  29 H29            3.3142    -0.4806     0.4622 H       
  30 H30            1.1665     3.1341    -0.3981 H       
  31 H31            4.9483     5.3784    -0.4617 H       
  32 H32            7.0786     1.7505     0.4118 H       
  33 H33            7.1264     6.5637    -0.4768 H       
  34 H34           10.9269     4.1798     0.8424 H       
  35 H35           10.9107     4.1777    -0.9498 H       
  36 H36           13.2788     6.8223    -1.3601 H       
  37 H37           13.2828     5.0430    -1.3133 H       
  38 H38           12.0081     5.9069    -2.2060 H       
  39 H39           12.0322     5.9014     2.0758 H       
  40 H40           13.2967     5.0398     1.1665 H       
  41 H41           13.2933     6.8190     1.2180 H       
  42 H42           12.4852     8.5566    -0.0647 H       
  43 H43           11.2330     8.7502    -2.1962 H       
  44 H44            9.7781     9.2427    -1.2967 H       
  45 H45           11.2172    10.2902    -1.3039 H       
  46 H46           11.2587     8.7440     2.0822 H       
  47 H47           11.2323    10.2866     1.1946 H       
  48 H48            9.7932     9.2392     1.2017 H       
@<TRIPOS>BOND
   1    1    2 ar
   2    1    6 ar
   3    1   26 1
   4    2    3 ar
   5    2   27 1
   6    3    4 ar
   7    3   28 1
   8    4    5 ar
   9    4   29 1
  10    5    6 ar
  11    5    7 1
  12    6   30 1
  13    7    8 3
  14    8    9 1
  15    9   10 ar
  16    9   13 ar
  17   10   14 ar
  18   10   31 1
  19   11   12 ar
  20   11   15 1
  21   11   14 ar
  22   12   13 ar
  23   13   32 1
  24   14   33 1
  25   15   16 am
  26   15   19 1
  27   16   17 am
  28   16   20 2
  29   17   18 1
  30   17   23 1
  31   18   19 1
  32   18   21 1
  33   18   22 1
  34   19   34 1
  35   19   35 1
  36   21   36 1
  37   21   37 1
  38   21   38 1
  39   22   39 1
  40   22   40 1
  41   22   41 1
  42   23   24 1
  43   23   25 1
  44   23   42 1
  45   24   43 1
  46   24   44 1
  47   24   45 1
  48   25   46 1
  49   25   47 1
  50   25   48 1

#	End of record

