#	Name: ASD01910455
#	Creating user name:	WinNT
#	Creation time:	15. 06. 2019 19:55

#	Modifying user name:	WinNT
#	Modification time:	15. 06. 2019 19:55

#	Program:	/corina/corina34_cracker 3.40 0067  02.08.2006

@<TRIPOS>MOLECULE
ASD01910455
  47   50    0    0    0
SMALL
NO_CHARGES


@<TRIPOS>ATOM
   1 C1             0.0249     1.3037    -0.0722 C.ar    
   2 C2             0.0579    -0.0816    -0.0818 C.ar    
   3 C3             1.2718    -0.7497    -0.0866 C.ar    
   4 C4             2.4534    -0.0376    -0.0815 C.ar    
   5 C5             2.4248     1.3557    -0.0718 C.ar    
   6 C6             1.2018     2.0236    -0.0674 C.ar    
   7 F7            -1.0969    -0.7828    -0.0859 F       
   8 C8             3.6932     2.1258    -0.0658 C.2     
   9 N9             3.8145     3.4726    -0.0564 N.2     
  10 C10            5.1026     3.7097    -0.0532 C.2     
  11 O11            5.7210     2.5247    -0.0606 O.3     
  12 N12            4.9030     1.6292    -0.0628 N.2     
  13 C13            5.7634     5.0641    -0.0435 C.3     
  14 C14            6.6341     5.1987     1.2079 C.3     
  15 C15            7.2797     6.5860     1.2353 C.3     
  16 C16            8.1747     6.7528     0.0033 C.3     
  17 N17            7.3773     6.4820    -1.2006 N.am    
  18 C18            6.6412     5.2136    -1.2900 C.3     
  19 C19            7.3221     7.3802    -2.2040 C.2     
  20 C20            7.9905     8.6898    -2.0607 C.ar    
  21 O21            6.7222     7.1126    -3.2270 O.2     
  22 C22            9.3492     8.7521    -1.7452 C.ar    
  23 C23            9.9681     9.9768    -1.6131 C.ar    
  24 C24            9.2439    11.1452    -1.7926 C.ar    
  25 C25            7.8941    11.0891    -2.1056 C.ar    
  26 C26            7.2669     9.8699    -2.2461 C.ar    
  27 F27            9.8551    12.3429    -1.6615 F       
  28 C28            5.8001     9.8104    -2.5867 C.3     
  29 H29           -0.9233     1.8205    -0.0729 H       
  30 H30            1.2930    -1.8294    -0.0941 H       
  31 H31            3.3991    -0.5591    -0.0846 H       
  32 H32            1.1752     3.1032    -0.0603 H       
  33 H33            4.9994     5.8415    -0.0406 H       
  34 H34            6.0159     5.0682     2.0961 H       
  35 H35            7.4127     4.4361     1.1923 H       
  36 H36            6.5018     7.3495     1.2260 H       
  37 H37            7.8809     6.6896     2.1386 H       
  38 H38            8.5585     7.7723    -0.0342 H       
  39 H39            9.0055     6.0492     0.0573 H       
  40 H40            7.3469     4.3845    -1.3416 H       
  41 H41            6.0132     5.2175    -2.1809 H       
  42 H42            9.9142     7.8425    -1.6045 H       
  43 H43           11.0191    10.0262    -1.3691 H       
  44 H44            7.3343    12.0023    -2.2436 H       
  45 H45            5.6749     9.8798    -3.6673 H       
  46 H46            5.3827     8.8679    -2.2324 H       
  47 H47            5.2817    10.6405    -2.1069 H       
@<TRIPOS>BOND
   1    1    2 ar
   2    1    6 ar
   3    1   29 1
   4    2    3 ar
   5    2    7 1
   6    3    4 ar
   7    3   30 1
   8    4    5 ar
   9    4   31 1
  10    5    6 ar
  11    5    8 1
  12    6   32 1
  13    8    9 1
  14    8   12 2
  15    9   10 2
  16   10   11 1
  17   10   13 1
  18   11   12 1
  19   13   14 1
  20   13   18 1
  21   13   33 1
  22   14   15 1
  23   14   34 1
  24   14   35 1
  25   15   16 1
  26   15   36 1
  27   15   37 1
  28   16   17 1
  29   16   38 1
  30   16   39 1
  31   17   18 1
  32   17   19 am
  33   18   40 1
  34   18   41 1
  35   19   20 1
  36   19   21 2
  37   20   22 ar
  38   20   26 ar
  39   22   23 ar
  40   22   42 1
  41   23   24 ar
  42   23   43 1
  43   24   25 ar
  44   24   27 1
  45   25   26 ar
  46   25   44 1
  47   26   28 1
  48   28   45 1
  49   28   46 1
  50   28   47 1

#	End of record

