#	Name: ASD01884855
#	Creating user name:	WinNT
#	Creation time:	15. 06. 2019 19:49

#	Modifying user name:	WinNT
#	Modification time:	15. 06. 2019 19:49

#	Program:	/corina/corina34_cracker 3.40 0067  02.08.2006

@<TRIPOS>MOLECULE
ASD01884855
  49   54    0    0    0
SMALL
NO_CHARGES


@<TRIPOS>ATOM
   1 C1            -0.0164     1.3603     0.0095 C.ar    
   2 C2             0.0021    -0.0041     0.0020 C.ar    
   3 C3             1.2155    -0.7020    -0.0133 C.ar    
   4 C4             2.4183    -0.0074    -0.0210 C.ar    
   5 C5             2.4037     1.3870    -0.0134 C.ar    
   6 C6             1.1772     2.0775     0.0020 C.ar    
   7 C7             3.4476     2.4152    -0.0183 C.2     
   8 C8             2.8260     3.6047    -0.0062 C.2     
   9 N9             1.4700     3.4228     0.0060 N.pl3   
  10 C10            0.4769     4.4997     0.0204 C.3     
  11 C11            1.2167    -2.1838    -0.0208 C.2     
  12 C12            0.7023    -2.8772    -1.1012 C.2     
  13 C13            1.7499    -2.9040     1.0758 C.2     
  14 C14            1.7501    -4.2500     1.0672 C.2     
  15 N15            1.2397    -4.9434     0.0073 N.pl3   
  16 C16            0.7177    -4.2833    -1.0786 C.2     
  17 Cl17           0.0472    -2.0249    -2.4643 Cl      
  18 C18            1.1110    -6.2707    -0.2677 C.2     
  19 N19            0.5432    -6.3768    -1.4413 N.2     
  20 N20            0.3069    -5.2103    -1.9303 N.2     
  21 C21            1.5439    -7.4100     0.6187 C.3     
  22 C22            0.6717     5.3598     1.2729 C.3     
  23 C23            0.6556     5.3782    -1.2217 C.3     
  24 C24           -0.3334     6.5451    -1.1584 C.3     
  25 O25           -0.1184     7.2854     0.0449 O.3     
  26 C26           -0.3179     6.5273     1.2397 C.3     
  27 C27            0.4665    -8.3918     1.0839 C.3     
  28 C28            1.4902    -8.8218     0.0313 C.3     
  29 H29           -0.9600     1.8857     0.0168 H       
  30 H30           -0.9291    -0.5512     0.0083 H       
  31 H31            3.3564    -0.5424    -0.0325 H       
  32 H32            4.5145     2.2477    -0.0292 H       
  33 H33            3.3228     4.5637    -0.0056 H       
  34 H34           -0.5254     4.0714     0.0245 H       
  35 H35            2.1582    -2.3713     1.9219 H       
  36 H36            2.1595    -4.7885     1.9092 H       
  37 H37            2.3527    -7.1840     1.3135 H       
  38 H38            0.4919     4.7549     2.1616 H       
  39 H39            1.6907     5.7464     1.2944 H       
  40 H40            1.6742     5.7652    -1.2506 H       
  41 H41            0.4642     4.7866    -2.1169 H       
  42 H42           -0.1815     7.1973    -2.0185 H       
  43 H43           -1.3525     6.1588    -1.1704 H       
  44 H44           -1.3369     6.1408     1.2591 H       
  45 H45           -0.1549     7.1668     2.1073 H       
  46 H46            0.5668    -8.8119     2.0847 H       
  47 H47           -0.5553    -8.2136     0.7489 H       
  48 H48            1.1419    -8.9265    -0.9962 H       
  49 H49            2.2640    -9.5249     0.3395 H       
@<TRIPOS>BOND
   1    1    2 ar
   2    1    6 ar
   3    1   29 1
   4    2    3 ar
   5    2   30 1
   6    3    4 ar
   7    3   11 1
   8    4    5 ar
   9    4   31 1
  10    5    6 ar
  11    5    7 1
  12    6    9 1
  13    7    8 2
  14    7   32 1
  15    8    9 1
  16    8   33 1
  17    9   10 1
  18   10   22 1
  19   10   23 1
  20   10   34 1
  21   11   12 2
  22   11   13 1
  23   12   17 1
  24   12   16 1
  25   13   14 2
  26   13   35 1
  27   14   15 1
  28   14   36 1
  29   15   16 1
  30   15   18 1
  31   16   20 2
  32   18   19 2
  33   18   21 1
  34   19   20 1
  35   21   27 1
  36   21   28 1
  37   21   37 1
  38   22   26 1
  39   22   38 1
  40   22   39 1
  41   23   24 1
  42   23   40 1
  43   23   41 1
  44   24   25 1
  45   24   42 1
  46   24   43 1
  47   25   26 1
  48   26   44 1
  49   26   45 1
  50   27   28 1
  51   27   46 1
  52   27   47 1
  53   28   48 1
  54   28   49 1

#	End of record

