#	Name: ASD00120071
#	Creating user name:	WinNT
#	Creation time:	15. 06. 2019 18:31

#	Modifying user name:	WinNT
#	Modification time:	15. 06. 2019 18:31

#	Program:	/corina/corina34_cracker 3.40 0067  02.08.2006

@<TRIPOS>MOLECULE
ASD00120071
  53   55    0    0    0
SMALL
NO_CHARGES


@<TRIPOS>ATOM
   1 C1             4.4923    -1.5266    -0.0528 C.ar    
   2 C2             5.6790    -1.5393     0.6592 C.ar    
   3 C3             6.2077    -0.3547     1.1442 C.ar    
   4 C4             5.5504     0.8397     0.9178 C.ar    
   5 C5             4.3651     0.8535     0.2069 C.ar    
   6 C6             3.8349    -0.3295    -0.2793 C.ar    
   7 F7             6.3213    -2.7069     0.8814 F       
   8 F8             2.6766    -0.3156    -0.9745 F       
   9 C9             3.6493     2.1567    -0.0387 C.3     
  10 N10            4.0358     2.6869    -1.3485 N.pl3   
  11 C11            4.9623     2.1475    -2.1775 C.2     
  12 C12            5.0486     2.9100    -3.2940 C.2     
  13 C13            4.1435     3.9674    -3.1624 C.2     
  14 C14            3.5141     3.8128    -1.9449 C.2     
  15 C15            5.9591     2.6626    -4.4691 C.3     
  16 C16            5.2426     1.7790    -5.4922 C.3     
  17 C17            4.0400     2.5327    -6.0636 C.3     
  18 C18            6.2080     1.4251    -6.6253 C.3     
  19 C19            2.4831     4.6914    -1.3845 C.2     
  20 N20            1.8832     4.3700    -0.2212 N.am    
  21 O21            2.1690     5.7110    -1.9697 O.2     
  22 C22            0.8348     5.1353     0.2493 C.2     
  23 S23            0.1737     6.5589    -0.5634 S.3     
  24 C24           -1.0996     6.9078     0.6924 C.3     
  25 C25           -0.8873     5.7930     1.7286 C.3     
  26 N26            0.1930     4.9145     1.3385 N.2     
  27 Cl27          -0.8317     8.5279     1.4370 Cl      
  28 C28           -0.5628     6.4235     3.0844 C.3     
  29 C29           -0.4741     5.3439     4.1321 C.2     
  30 O30           -0.6522     4.1887     3.8259 O.2     
  31 O31           -0.1973     5.6656     5.4055 O.3     
  32 H32            4.0816    -2.4494    -0.4352 H       
  33 H33            7.1337    -0.3643     1.6998 H       
  34 H34            5.9630     1.7629     1.2970 H       
  35 H35            2.5724     1.9893    -0.0179 H       
  36 H36            3.9208     2.8723     0.7374 H       
  37 H37            5.5384     1.2555    -1.9801 H       
  38 H38            3.9677     4.7548    -3.8804 H       
  39 H39            6.2221     3.6139    -4.9316 H       
  40 H40            6.8650     2.1618    -4.1277 H       
  41 H41            4.9012     0.8647    -5.0069 H       
  42 H42            4.3814     3.4470    -6.5490 H       
  43 H43            3.5296     1.9032    -6.7926 H       
  44 H44            3.3522     2.7848    -5.2565 H       
  45 H45            7.0647     0.8881    -6.2182 H       
  46 H46            5.6975     0.7956    -7.3542 H       
  47 H47            6.5494     2.3394    -7.1106 H       
  48 H48            2.1880     3.6010     0.2854 H       
  49 H49           -2.0969     6.8435     0.2572 H       
  50 H50           -1.8034     5.2092     1.8182 H       
  51 H51            0.3904     6.9485     3.0221 H       
  52 H52           -1.3489     7.1284     3.3547 H       
  53 H53           -0.1508     4.9389     6.0418 H       
@<TRIPOS>BOND
   1    1    2 ar
   2    1    6 ar
   3    1   32 1
   4    2    3 ar
   5    2    7 1
   6    3    4 ar
   7    3   33 1
   8    4    5 ar
   9    4   34 1
  10    5    6 ar
  11    5    9 1
  12    6    8 1
  13    9   10 1
  14    9   35 1
  15    9   36 1
  16   10   11 1
  17   10   14 1
  18   11   12 2
  19   11   37 1
  20   12   13 1
  21   12   15 1
  22   13   14 2
  23   13   38 1
  24   14   19 1
  25   15   16 1
  26   15   39 1
  27   15   40 1
  28   16   17 1
  29   16   18 1
  30   16   41 1
  31   17   42 1
  32   17   43 1
  33   17   44 1
  34   18   45 1
  35   18   46 1
  36   18   47 1
  37   19   20 am
  38   19   21 2
  39   20   22 1
  40   20   48 1
  41   22   23 1
  42   22   26 2
  43   23   24 1
  44   24   25 1
  45   24   27 1
  46   24   49 1
  47   25   26 1
  48   25   28 1
  49   25   50 1
  50   28   29 1
  51   28   51 1
  52   28   52 1
  53   29   30 2
  54   29   31 1
  55   31   53 1

#	End of record

