#	Name: ASD01913554
#	Creating user name:	WinNT
#	Creation time:	15. 06. 2019 20:01

#	Modifying user name:	WinNT
#	Modification time:	15. 06. 2019 20:01

#	Program:	/corina/corina34_cracker 3.40 0067  02.08.2006

@<TRIPOS>MOLECULE
ASD01913554
  33   35    0    0    0
SMALL
NO_CHARGES


@<TRIPOS>ATOM
   1 C1             0.8797     0.2444    -0.9926 C.ar    
   2 C2             0.1163    -0.0142     0.1413 C.ar    
   3 C3             0.5609     0.4469     1.3723 C.ar    
   4 N4             1.6893     1.1209     1.4705 N.ar    
   5 C5             2.4361     1.3827     0.4154 C.ar    
   6 C6             2.0594     0.9560    -0.8441 C.ar    
   7 C7            -0.9776    -2.0578    -0.0784 C.ar    
   8 C8             0.2531    -2.7074    -0.1102 C.ar    
   9 C9             0.2882    -4.0853    -0.2311 C.ar    
  10 N10           -0.8222    -4.7861    -0.3159 N.ar    
  11 C11           -2.0181    -4.2083    -0.2897 C.ar    
  12 C12           -2.1349    -2.8275    -0.1703 C.ar    
  13 C13           -3.2384    -5.0421    -0.3890 C.2     
  14 N14           -3.1323    -6.3807    -0.5053 N.am    
  15 O15           -1.0483    -0.7079     0.0448 O.3     
  16 C16           -4.2745    -7.1718    -0.4930 C.ar    
  17 O17           -4.3350    -4.5194    -0.3656 O.2     
  18 C18           -4.1728    -8.5633    -0.4968 C.ar    
  19 C19           -5.3382    -9.3062    -0.4841 C.ar    
  20 N20           -6.5048    -8.6781    -0.4688 N.ar    
  21 C21           -6.5668    -7.3616    -0.4655 C.ar    
  22 N22           -5.4814    -6.6149    -0.4717 N.ar    
  23 H23            0.5629    -0.1049    -1.9643 H       
  24 H24           -0.0240     0.2519     2.2591 H       
  25 H25            3.3543     1.9380     0.5373 H       
  26 H26            2.6770     1.1752    -1.7025 H       
  27 H27            1.1707    -2.1420    -0.0417 H       
  28 H28            1.2411    -4.5930    -0.2565 H       
  29 H29           -3.1079    -2.3594    -0.1488 H       
  30 H30           -2.2586    -6.7918    -0.5977 H       
  31 H31           -3.2077    -9.0477    -0.5098 H       
  32 H32           -5.2985   -10.3855    -0.4870 H       
  33 H33           -7.5342    -6.8816    -0.4532 H       
@<TRIPOS>BOND
   1    1    2 ar
   2    1    6 ar
   3    1   23 1
   4    2    3 ar
   5    2   15 1
   6    3    4 ar
   7    3   24 1
   8    4    5 ar
   9    5    6 ar
  10    5   25 1
  11    6   26 1
  12    7    8 ar
  13    7   12 ar
  14    7   15 1
  15    8    9 ar
  16    8   27 1
  17    9   10 ar
  18    9   28 1
  19   10   11 ar
  20   11   12 ar
  21   11   13 1
  22   12   29 1
  23   13   14 am
  24   13   17 2
  25   14   16 1
  26   14   30 1
  27   16   18 ar
  28   16   22 ar
  29   18   19 ar
  30   18   31 1
  31   19   20 ar
  32   19   32 1
  33   20   21 ar
  34   21   22 ar
  35   21   33 1

#	End of record

