#	Name: ASD05720268
#	Creating user name:	WinNT
#	Creation time:	15. 06. 2019 21:02

#	Modifying user name:	WinNT
#	Modification time:	15. 06. 2019 21:02

#	Program:	/corina/corina34_cracker 3.40 0067  02.08.2006

@<TRIPOS>MOLECULE
ASD05720268
  84   87    0    0    0
SMALL
NO_CHARGES


@<TRIPOS>ATOM
   1 N1             2.1110     3.4494     0.5357 N.am    
   2 C2             1.8898     2.1947     0.9415 C.2     
   3 C3             2.9178     1.1061     0.8146 C.3     
   4 N4             3.9555     1.5052    -0.1456 N.3     
   5 C5             4.4598     2.8489     0.1812 C.3     
   6 C6             3.3562     3.8700    -0.1004 C.3     
   7 O7             0.8146     1.9240     1.4329 O.2     
   8 C8             5.0494     0.5253    -0.1760 C.3     
   9 C9             4.5300    -0.8020    -0.7322 C.3     
  10 C10            5.9387    -2.6189     0.2316 C.2     
  11 N11            6.9798    -3.4157    -0.0425 N.am    
  12 C12            7.4738    -3.1172    -1.3951 C.3     
  13 C13            6.5413    -1.9941    -1.8891 C.3     
  14 N14            5.6210    -1.7792    -0.7625 N.am    
  15 O15            5.3336    -2.6577     1.2853 O.2     
  16 C16            7.3543    -4.3490    -2.2946 C.3     
  17 C17            8.2945    -5.4442    -1.7872 C.3     
  18 C18            5.9130    -4.8618    -2.2683 C.3     
  19 C19            9.1476    -5.9219     1.3076 C.2     
  20 N20            8.6247    -4.9992     0.4940 N.2     
  21 C21            7.5087    -4.3718     0.8143 C.2     
  22 C22            6.8535    -4.6715     2.0260 C.2     
  23 C23            7.3798    -5.6045     2.8515 C.2     
  24 N24            8.5372    -6.2376     2.4924 N.pl3   
  25 N25            9.3041    -7.2241     3.1225 N.2     
  26 C26           10.3398    -7.5116     2.3729 C.2     
  27 C27           10.2912    -6.7264     1.2146 C.2     
  28 C28           11.2666    -6.7415     0.1014 C.ar    
  29 C29           12.6331    -6.6411     0.3688 C.ar    
  30 C30           13.5400    -6.6557    -0.6672 C.ar    
  31 C31           13.0936    -6.7703    -1.9837 C.ar    
  32 C32           11.7284    -6.8707    -2.2516 C.ar    
  33 C33           10.8208    -6.8620    -1.2161 C.ar    
  34 N34           14.9920    -6.8604    -5.0766 N.pl3   
  35 N35           13.7749    -6.8879    -4.3767 N.2     
  36 C36           14.0709    -6.7850    -3.0991 C.2     
  37 N37           15.4020    -6.6957    -2.9727 N.2     
  38 C38           15.9621    -6.7400    -4.1525 C.2     
  39 H39            1.4116     4.1087     0.6662 H       
  40 H40            3.3752     0.9253     1.7873 H       
  41 H41            2.4359     0.1921     0.4675 H       
  42 H42            4.7348     2.8897     1.2352 H       
  43 H43            5.3306     3.0723    -0.4350 H       
  44 H44            3.2034     3.9498    -1.1767 H       
  45 H45            3.6534     4.8417     0.2940 H       
  46 H46            5.8523     0.8968    -0.8128 H       
  47 H47            5.4284     0.3724     0.8345 H       
  48 H48            3.7271    -1.1734    -0.0954 H       
  49 H49            4.1510    -0.6490    -1.7427 H       
  50 H50            8.5058    -2.7685    -1.3572 H       
  51 H51            7.1103    -1.0879    -2.0966 H       
  52 H52            5.9931    -2.3141    -2.7753 H       
  53 H53            7.6260    -4.0812    -3.3156 H       
  54 H54            8.3789    -6.2281    -2.5398 H       
  55 H55            9.2790    -5.0175    -1.5950 H       
  56 H56            7.8956    -5.8672    -0.8652 H       
  57 H57            5.2431    -4.0816    -2.6298 H       
  58 H58            5.8278    -5.7394    -2.9091 H       
  59 H59            5.6412    -5.1297    -1.2473 H       
  60 H60            5.9401    -4.1606     2.2927 H       
  61 H61            6.8915    -5.8466     3.7839 H       
  62 H62           11.1037    -8.2378     2.6083 H       
  63 H63           12.9789    -6.5516     1.3881 H       
  64 H64           14.5972    -6.5780    -0.4605 H       
  65 H65           11.3834    -6.9594    -3.2711 H       
  66 H66            9.7641    -6.9438    -1.4234 H       
  67 H67           15.1103    -6.9206    -6.0375 H       
  68 H68           17.0224    -6.6888    -4.3516 H       
  69 C69           23.1938    11.8299     9.9307 C.2     
  70 C70           23.2143    10.3231     9.9225 C.3     
  71 O71           24.2319    12.4482     9.9242 O.2     
  72 O72           22.0224    12.4852     9.9399 O.3     
  73 F73           24.5394     9.8748     9.9074 F       
  74 F74           22.5721     9.8417    11.0684 F       
  75 F75           22.5503     9.8540     8.7839 F       
  76 H76           22.0599    13.4515     9.9449 H       
  77 C77           30.7108    20.4397    17.2152 C.2     
  78 C78           30.7313    18.9329    17.2069 C.3     
  79 O79           31.7489    21.0580    17.2086 O.2     
  80 O80           29.5394    21.0950    17.2243 O.3     
  81 F81           32.0564    18.4845    17.1918 F       
  82 F82           30.0891    18.4515    18.3528 F       
  83 F83           30.0673    18.4637    16.0684 F       
  84 H84           29.5769    22.0612    17.2294 H       
@<TRIPOS>BOND
   1    1    2 am
   2    1    6 1
   3    1   39 1
   4    2    3 1
   5    2    7 2
   6    3    4 1
   7    3   40 1
   8    3   41 1
   9    4    5 1
  10    4    8 1
  11    5    6 1
  12    5   42 1
  13    5   43 1
  14    6   44 1
  15    6   45 1
  16    8    9 1
  17    8   46 1
  18    8   47 1
  19    9   14 1
  20    9   48 1
  21    9   49 1
  22   10   11 am
  23   10   14 am
  24   10   15 2
  25   11   12 1
  26   11   21 1
  27   12   13 1
  28   12   16 1
  29   12   50 1
  30   13   14 1
  31   13   51 1
  32   13   52 1
  33   16   17 1
  34   16   18 1
  35   16   53 1
  36   17   54 1
  37   17   55 1
  38   17   56 1
  39   18   57 1
  40   18   58 1
  41   18   59 1
  42   19   20 1
  43   19   24 1
  44   19   27 2
  45   20   21 2
  46   21   22 1
  47   22   23 2
  48   22   60 1
  49   23   24 1
  50   23   61 1
  51   24   25 1
  52   25   26 2
  53   26   27 1
  54   26   62 1
  55   27   28 1
  56   28   29 ar
  57   28   33 ar
  58   29   30 ar
  59   29   63 1
  60   30   31 ar
  61   30   64 1
  62   31   32 ar
  63   31   36 1
  64   32   33 ar
  65   32   65 1
  66   33   66 1
  67   34   35 1
  68   34   38 1
  69   34   67 1
  70   35   36 2
  71   36   37 1
  72   37   38 2
  73   38   68 1
  74   69   70 1
  75   69   71 2
  76   69   72 1
  77   70   73 1
  78   70   74 1
  79   70   75 1
  80   72   76 1
  81   77   78 1
  82   77   79 2
  83   77   80 1
  84   78   81 1
  85   78   82 1
  86   78   83 1
  87   80   84 1

#	End of record

