#	Name: ASD01940597
#	Creating user name:	WinNT
#	Creation time:	15. 06. 2019 20:12

#	Modifying user name:	WinNT
#	Modification time:	15. 06. 2019 20:12

#	Program:	/corina/corina34_cracker 3.40 0067  02.08.2006

@<TRIPOS>MOLECULE
ASD01940597
  38   40    0    0    0
SMALL
NO_CHARGES


@<TRIPOS>ATOM
   1 C1             0.3464     0.9734     1.1868 C.ar    
   2 C2            -0.1452     0.2351     0.1260 C.ar    
   3 C3             0.6362     0.0253    -0.9975 C.ar    
   4 C4             1.9151     0.5546    -1.0639 C.ar    
   5 C5             2.4139     1.2972    -0.0019 C.ar    
   6 C6             1.6251     1.5070     1.1282 C.ar    
   7 N7             2.1231     2.2560     2.2026 N.am    
   8 S8             1.7281     1.8395     3.7559 S.o2    
   9 C9             2.3497     0.1455     3.9423 C.3     
  10 O10            2.4789     2.7376     4.5614 O.2     
  11 O11            0.3072     1.8538     3.7720 O.2     
  12 F12            0.1510    -0.6973    -2.0308 F       
  13 F13            2.6762     0.3479    -2.1608 F       
  14 N14            3.7071     1.8336    -0.0656 N.pl3   
  15 C15            4.8087     1.0414     0.2646 C.ar    
  16 C16            6.0795     1.6085     0.3261 C.ar    
  17 C17            4.6344    -0.3102     0.5369 C.ar    
  18 C18            5.7197    -1.0951     0.8632 C.ar    
  19 C19            6.9955    -0.5320     0.9203 C.ar    
  20 C20            7.1687     0.8276     0.6517 C.ar    
  21 F21            6.2452     2.9239     0.0664 F       
  22 C22            8.1242    -1.3457     1.2591 C.1     
  23 C23            2.0355    -0.5823     5.2509 C.3     
  24 C24            1.3207    -0.9866     3.9600 C.3     
  25 C25            9.0495    -2.0127     1.5368 C.1     
  26 H26           -0.2676     1.1384     2.0598 H       
  27 H27           -1.1413    -0.1794     0.1742 H       
  28 H28            2.6993     3.0185     2.0366 H       
  29 H29            3.3125    -0.0562     3.4728 H       
  30 H30            3.8370     2.7552    -0.3391 H       
  31 H31            3.6472    -0.7461     0.4931 H       
  32 H32            5.5828    -2.1453     1.0749 H       
  33 H33            8.1548     1.2660     0.6948 H       
  34 H34            2.7914    -1.2632     5.6422 H       
  35 H35            1.4552    -0.0432     5.9998 H       
  36 H36            0.2702    -0.7136     3.8596 H       
  37 H37            1.6064    -1.9335     3.5019 H       
  38 H38            9.8770    -2.6093     1.7852 H       
@<TRIPOS>BOND
   1    1    2 ar
   2    1    6 ar
   3    1   26 1
   4    2    3 ar
   5    2   27 1
   6    3    4 ar
   7    3   12 1
   8    4    5 ar
   9    4   13 1
  10    5    6 ar
  11    5   14 1
  12    6    7 1
  13    7    8 am
  14    7   28 1
  15    8    9 1
  16    8   10 2
  17    8   11 2
  18    9   23 1
  19    9   24 1
  20    9   29 1
  21   14   15 1
  22   14   30 1
  23   15   16 ar
  24   15   17 ar
  25   16   21 1
  26   16   20 ar
  27   17   18 ar
  28   17   31 1
  29   18   19 ar
  30   18   32 1
  31   19   20 ar
  32   19   22 1
  33   20   33 1
  34   22   25 3
  35   23   24 1
  36   23   34 1
  37   23   35 1
  38   24   36 1
  39   24   37 1
  40   25   38 1

#	End of record

