#	Name: ASD02198693
#	Creating user name:	WinNT
#	Creation time:	15. 06. 2019 20:20

#	Modifying user name:	WinNT
#	Modification time:	15. 06. 2019 20:20

#	Program:	/corina/corina34_cracker 3.40 0067  02.08.2006

@<TRIPOS>MOLECULE
ASD02198693
  45   49    0    0    0
SMALL
NO_CHARGES


@<TRIPOS>ATOM
   1 F1             2.2526    -1.7127     2.4712 F       
   2 C2            -0.0433     1.5016    -0.1150 C.2     
   3 C3            -0.0730     0.1619     0.0975 C.2     
   4 N4             1.0714    -0.5397     0.2598 N.pl3   
   5 N5             2.2359    -0.0049     0.2262 N.2     
   6 C6             2.4074     1.2845     0.0280 C.2     
   7 C7             1.2216     2.1356    -0.1605 C.2     
   8 C8             0.9799    -1.9188     0.4759 C.ar    
   9 C9             1.5805    -2.4898     1.5939 C.ar    
  10 C10            1.4892    -3.8524     1.8058 C.ar    
  11 C11            0.7986    -4.6503     0.9034 C.ar    
  12 C12            0.1997    -4.0796    -0.2127 C.ar    
  13 C13            0.2846    -2.7185    -0.4226 C.ar    
  14 C14            3.7643     1.8668    -0.0046 C.2     
  15 N15            4.3061     2.6070    -1.0177 N.pl3   
  16 N16            5.6081     2.9586    -0.6400 N.2     
  17 C17            5.8520     2.4589     0.5453 C.2     
  18 C18            4.7201     1.7711     0.9830 C.2     
  19 C19            3.6731     2.9515    -2.2187 C.ar    
  20 C20            3.8066     4.2347    -2.7325 C.ar    
  21 C21            3.1812     4.5712    -3.9170 C.ar    
  22 C22            2.4227     3.6320    -4.5912 C.ar    
  23 C23            2.2874     2.3534    -4.0820 C.ar    
  24 C24            2.9154     2.0088    -2.9012 C.ar    
  25 O25            1.3245     3.3387    -0.3483 O.2     
  26 N26            0.7060    -6.0322     1.1183 N.pl3   
  27 C27            0.0719    -6.9210     0.3205 C.2     
  28 N28            1.2592    -6.7381     2.1945 N.2     
  29 C29            0.9622    -8.0045     2.0492 C.2     
  30 C30            0.2140    -8.1470     0.8755 C.2     
  31 H31           -0.9547     2.0652    -0.2495 H       
  32 H32           -1.0228    -0.3506     0.1378 H       
  33 H33            1.9552    -4.2967     2.6729 H       
  34 H34           -0.3366    -4.7013    -0.9144 H       
  35 H35           -0.1817    -2.2760    -1.2905 H       
  36 H36            6.7756     2.5648     1.0949 H       
  37 H37            4.6145     1.2513     1.9237 H       
  38 H38            4.3986     4.9688    -2.2062 H       
  39 H39            3.2843     5.5692    -4.3169 H       
  40 H40            1.9345     3.8976    -5.5173 H       
  41 H41            1.6937     1.6223    -4.6106 H       
  42 H42            2.8094     1.0101    -2.5040 H       
  43 H43           -0.4538    -6.6933    -0.5951 H       
  44 H44            1.2478    -8.8024     2.7186 H       
  45 H45           -0.1808    -9.0721     0.4821 H       
@<TRIPOS>BOND
   1    1    9 1
   2    2    3 2
   3    2    7 1
   4    2   31 1
   5    3    4 1
   6    3   32 1
   7    4    5 1
   8    4    8 1
   9    5    6 2
  10    6    7 1
  11    6   14 1
  12    7   25 2
  13    8    9 ar
  14    8   13 ar
  15    9   10 ar
  16   10   11 ar
  17   10   33 1
  18   11   12 ar
  19   11   26 1
  20   12   13 ar
  21   12   34 1
  22   13   35 1
  23   14   15 1
  24   14   18 2
  25   15   16 1
  26   15   19 1
  27   16   17 2
  28   17   18 1
  29   17   36 1
  30   18   37 1
  31   19   20 ar
  32   19   24 ar
  33   20   21 ar
  34   20   38 1
  35   21   22 ar
  36   21   39 1
  37   22   23 ar
  38   22   40 1
  39   23   24 ar
  40   23   41 1
  41   24   42 1
  42   26   28 1
  43   26   27 1
  44   27   30 2
  45   27   43 1
  46   28   29 2
  47   29   30 1
  48   29   44 1
  49   30   45 1

#	End of record

