#	Name: ASD00960246
#	Creating user name:	WinNT
#	Creation time:	15. 06. 2019 18:53

#	Modifying user name:	WinNT
#	Modification time:	15. 06. 2019 18:53

#	Program:	/corina/corina34_cracker 3.40 0067  02.08.2006

@<TRIPOS>MOLECULE
ASD00960246
  40   43    0    0    0
SMALL
NO_CHARGES


@<TRIPOS>ATOM
   1 C1            -0.0167     1.3823     0.0096 C.2     
   2 C2             0.0021    -0.0041     0.0020 C.2     
   3 N3             1.2815     1.8104    -0.0005 N.pl3   
   4 C4             2.1002     0.7144     0.0004 C.2     
   5 C5             1.3456    -0.3988    -0.0054 C.2     
   6 N6             1.7988     3.1145     0.0019 N.2     
   7 C7             3.0804     3.2744    -0.2223 C.2     
   8 N8             3.9054     2.1984    -0.5220 N.pl3   
   9 C9             3.6052     0.8608     0.0188 C.3     
  10 N10            4.1036     0.7517     1.3963 N.3     
  11 C11            3.6591     4.6270    -0.1542 C.2     
  12 O12            2.9844     5.7572     0.1244 O.3     
  13 C13            3.8634     6.7766     0.0909 C.2     
  14 C14            5.0698     6.2554    -0.2089 C.2     
  15 N15            4.9221     4.9321    -0.3497 N.2     
  16 C16           -1.2080     2.2316     0.0202 C.2     
  17 O17           -2.3147     1.7268     0.0233 O.2     
  18 O18           -1.0790     3.5745     0.0263 O.3     
  19 C19           -2.2843     4.3420     0.0365 C.3     
  20 C20           -1.9449     5.8102     0.0422 C.ar    
  21 C21           -1.7955     6.4897    -1.1523 C.ar    
  22 C22           -1.4841     7.8365    -1.1471 C.ar    
  23 C23           -1.3227     8.5040     0.0526 C.ar    
  24 C24           -1.4730     7.8247     1.2471 C.ar    
  25 C25           -1.7886     6.4788     1.2419 C.ar    
  26 H26           -0.8582    -0.6571     0.0022 H       
  27 H27            1.7104    -1.4152    -0.0143 H       
  28 H28            4.6816     2.3274    -1.0892 H       
  29 H29            4.0627     0.0942    -0.6066 H       
  30 H30            5.1020     0.8931     1.4319 H       
  31 H31            3.6249     1.3974     2.0062 H       
  32 H32            3.6428     7.8185     0.2704 H       
  33 H33            5.9926     6.8068    -0.3129 H       
  34 H34           -2.8714     4.1082    -0.8517 H       
  35 H35           -2.8622     4.0991     0.9283 H       
  36 H36           -1.9217     5.9683    -2.0897 H       
  37 H37           -1.3667     8.3673    -2.0804 H       
  38 H38           -1.0787     9.5560     0.0567 H       
  39 H39           -1.3465     8.3460     2.1845 H       
  40 H40           -1.9097     5.9490     2.1752 H       
@<TRIPOS>BOND
   1    1    2 2
   2    1    3 1
   3    1   16 1
   4    2    5 1
   5    2   26 1
   6    3    4 1
   7    3    6 1
   8    4    5 2
   9    4    9 1
  10    5   27 1
  11    6    7 2
  12    7    8 1
  13    7   11 1
  14    8    9 1
  15    8   28 1
  16    9   10 1
  17    9   29 1
  18   10   30 1
  19   10   31 1
  20   11   12 1
  21   11   15 2
  22   12   13 1
  23   13   14 2
  24   13   32 1
  25   14   15 1
  26   14   33 1
  27   16   17 2
  28   16   18 1
  29   18   19 1
  30   19   20 1
  31   19   34 1
  32   19   35 1
  33   20   21 ar
  34   20   25 ar
  35   21   22 ar
  36   21   36 1
  37   22   23 ar
  38   22   37 1
  39   23   24 ar
  40   23   38 1
  41   24   25 ar
  42   24   39 1
  43   25   40 1

#	End of record

