#	Name: ASD01903268
#	Creating user name:	WinNT
#	Creation time:	15. 06. 2019 19:54

#	Modifying user name:	WinNT
#	Modification time:	15. 06. 2019 19:54

#	Program:	/corina/corina34_cracker 3.40 0067  02.08.2006

@<TRIPOS>MOLECULE
ASD01903268
  50   53    0    0    0
SMALL
NO_CHARGES


@<TRIPOS>ATOM
   1 C1             0.0316     1.3107     0.0770 C.ar    
   2 C2            -1.0987     1.6193    -0.6626 C.ar    
   3 C3            -1.0980     2.7497    -1.4651 C.ar    
   4 C4             0.0427     3.5360    -1.4985 C.ar    
   5 C5             1.1430     3.1652    -0.7285 C.ar    
   6 N6             1.1011     2.0746     0.0269 N.ar    
   7 C7             2.3700     3.9947    -0.7533 C.2     
   8 O8             2.4140     4.9941    -1.4435 O.2     
   9 N9             3.4376     3.6411    -0.0106 N.am    
  10 C10            4.6295     4.3682    -0.1080 C.ar    
  11 C11            4.5905     5.7426    -0.3032 C.ar    
  12 C12            5.7663     6.4603    -0.3992 C.ar    
  13 C13            6.9876     5.8085    -0.3007 C.ar    
  14 C14            7.0275     4.4332    -0.1048 C.ar    
  15 C15            5.8516     3.7160    -0.0035 C.ar    
  16 N16            8.1822     6.5374    -0.4041 N.am    
  17 C17            8.8301     7.0893     0.6377 C.2     
  18 C18           10.0365     7.7682     0.1363 C.ar    
  19 C19           10.0408     7.5714    -1.2601 C.ar    
  20 C20            8.8339     6.7717    -1.5577 C.2     
  21 O21            8.4779     7.0365     1.7995 O.2     
  22 O22            8.4856     6.3952    -2.6587 O.2     
  23 C23           11.0710     8.4974     0.7366 C.ar    
  24 C24           12.0973     9.0215    -0.0638 C.ar    
  25 C25           12.0870     8.8205    -1.4261 C.ar    
  26 C26           11.0650     8.0987    -2.0287 C.ar    
  27 C27           11.0809     8.7120     2.1912 C.2     
  28 Cl28           8.5551     3.6178     0.0185 Cl      
  29 N29           10.1268     8.2240     2.9266 N.2     
  30 N30           10.1363     8.4284     4.3126 N.pl3   
  31 C31           11.2216     9.1922     4.9329 C.3     
  32 C32            9.0608     7.8784     5.1415 C.3     
  33 H33            0.0328     0.4333     0.7068 H       
  34 H34           -1.9716     0.9853    -0.6146 H       
  35 H35           -1.9665     3.0114    -2.0513 H       
  36 H36            0.0783     4.4235    -2.1129 H       
  37 H37            3.3800     2.8827     0.5913 H       
  38 H38            3.6404     6.2502    -0.3803 H       
  39 H39            5.7355     7.5291    -0.5514 H       
  40 H40            5.8821     2.6472     0.1487 H       
  41 H41           12.8986     9.5853     0.3904 H       
  42 H42           12.8821     9.2286    -2.0324 H       
  43 H43           11.0687     7.9487    -3.0982 H       
  44 H44           11.8810     9.2750     2.6485 H       
  45 H45           10.9521    10.2479     4.9627 H       
  46 H46           11.3865     8.8305     5.9479 H       
  47 H47           12.1339     9.0664     4.3498 H       
  48 H48            9.3328     6.8757     5.4712 H       
  49 H49            8.9089     8.5180     6.0109 H       
  50 H50            8.1406     7.8322     4.5591 H       
@<TRIPOS>BOND
   1    1    2 ar
   2    1    6 ar
   3    1   33 1
   4    2    3 ar
   5    2   34 1
   6    3    4 ar
   7    3   35 1
   8    4    5 ar
   9    4   36 1
  10    5    6 ar
  11    5    7 1
  12    7    8 2
  13    7    9 am
  14    9   10 1
  15    9   37 1
  16   10   11 ar
  17   10   15 ar
  18   11   12 ar
  19   11   38 1
  20   12   13 ar
  21   12   39 1
  22   13   14 ar
  23   13   16 1
  24   14   15 ar
  25   14   28 1
  26   15   40 1
  27   16   17 am
  28   16   20 am
  29   17   18 1
  30   17   21 2
  31   18   19 ar
  32   18   23 ar
  33   19   20 1
  34   19   26 ar
  35   20   22 2
  36   23   24 ar
  37   23   27 1
  38   24   25 ar
  39   24   41 1
  40   25   26 ar
  41   25   42 1
  42   26   43 1
  43   27   29 2
  44   27   44 1
  45   29   30 1
  46   30   31 1
  47   30   32 1
  48   31   45 1
  49   31   46 1
  50   31   47 1
  51   32   48 1
  52   32   49 1
  53   32   50 1

#	End of record

