#	Name: ASD01918542
#	Creating user name:	WinNT
#	Creation time:	15. 06. 2019 20:11

#	Modifying user name:	WinNT
#	Modification time:	15. 06. 2019 20:11

#	Program:	/corina/corina34_cracker 3.40 0067  02.08.2006

@<TRIPOS>MOLECULE
ASD01918542
  44   46    0    0    0
SMALL
NO_CHARGES


@<TRIPOS>ATOM
   1 C1            -0.0187     1.5258     0.0104 C.3     
   2 C2             0.0021    -0.0041     0.0020 C.3     
   3 C3             0.7421    -0.5109     1.2415 C.3     
   4 C4             0.7628    -2.0407     1.2331 C.3     
   5 C5             1.4748    -2.5284     2.4257 C.1     
   6 C6             2.0426    -2.9173     3.3768 C.1     
   7 C7             2.7352    -3.3916     4.5369 C.ar    
   8 C8             3.2613    -2.4933     5.4655 C.ar    
   9 N9             3.8983    -2.9295     6.5327 N.ar    
  10 C10            4.0642    -4.2168     6.7673 C.ar    
  11 C11            3.5718    -5.1708     5.8949 C.ar    
  12 C12            2.8905    -4.7644     4.7611 C.ar    
  13 C13            3.7711    -6.6373     6.1787 C.3     
  14 H14            3.6648    -7.2211     5.2644 H       
  15 N15            5.0882    -6.8709     6.7906 N.am    
  16 C16            4.9126    -7.3987     8.0097 C.2     
  17 O17            5.8349    -7.6930     8.7440 O.2     
  18 O18            3.6291    -7.5714     8.3447 O.3     
  19 C19            2.7743    -7.1218     7.2493 C.3     
  20 H20            2.1345    -6.3015     7.5747 H       
  21 C21            1.9444    -8.2631     6.7204 C.ar    
  22 C22            2.4226    -9.5578     6.7955 C.ar    
  23 C23            1.6622   -10.6059     6.3107 C.ar    
  24 C24            0.4233   -10.3602     5.7505 C.ar    
  25 C25           -0.0571    -9.0635     5.6751 C.ar    
  26 F26           -1.2683    -8.8220     5.1276 F       
  27 C27            0.7028    -8.0154     6.1656 C.ar    
  28 H28            1.0039     1.9031     0.0027 H       
  29 H29           -0.5459     1.8868    -0.8726 H       
  30 H30           -0.5289     1.8773     0.9072 H       
  31 H31           -1.0205    -0.3814     0.0098 H       
  32 H32            0.5123    -0.3556    -0.8948 H       
  33 H33            1.7647    -0.1336     1.2338 H       
  34 H34            0.2319    -0.1594     2.1383 H       
  35 H35           -0.2598    -2.4180     1.2409 H       
  36 H36            1.2730    -2.3923     0.3363 H       
  37 H37            3.1455    -1.4312     5.3079 H       
  38 H38            4.5934    -4.5312     7.6547 H       
  39 H39            2.4923    -5.4878     4.0651 H       
  40 H40            5.9443    -6.6750     6.3787 H       
  41 H41            3.3910    -9.7508     7.2329 H       
  42 H42            2.0370   -11.6171     6.3696 H       
  43 H43           -0.1702   -11.1790     5.3712 H       
  44 H44            0.3275    -7.0042     6.1112 H       
@<TRIPOS>BOND
   1    1    2 1
   2    1   28 1
   3    1   29 1
   4    1   30 1
   5    2    3 1
   6    2   31 1
   7    2   32 1
   8    3    4 1
   9    3   33 1
  10    3   34 1
  11    4    5 1
  12    4   35 1
  13    4   36 1
  14    5    6 3
  15    6    7 1
  16    7   12 ar
  17    7    8 ar
  18    8    9 ar
  19    8   37 1
  20    9   10 ar
  21   10   11 ar
  22   10   38 1
  23   11   12 ar
  24   11   13 1
  25   12   39 1
  26   13   14 1
  27   13   19 1
  28   13   15 1
  29   15   16 am
  30   15   40 1
  31   16   17 2
  32   16   18 1
  33   18   19 1
  34   19   20 1
  35   19   21 1
  36   21   27 ar
  37   21   22 ar
  38   22   23 ar
  39   22   41 1
  40   23   24 ar
  41   23   42 1
  42   24   25 ar
  43   24   43 1
  44   25   26 1
  45   25   27 ar
  46   27   44 1

#	End of record

