#	Name: ASD01917786
#	Creating user name:	WinNT
#	Creation time:	15. 06. 2019 20:10

#	Modifying user name:	WinNT
#	Modification time:	15. 06. 2019 20:10

#	Program:	/corina/corina34_cracker 3.40 0067  02.08.2006

@<TRIPOS>MOLECULE
ASD01917786
  42   45    0    0    0
SMALL
NO_CHARGES


@<TRIPOS>ATOM
   1 C1             0.0080     1.2617    -0.0926 C.2     
   2 C2            -0.0161    -0.0847    -0.0659 C.2     
   3 C3            -1.2721    -0.9163    -0.0016 C.3     
   4 C4            -2.4294    -0.0294     0.4746 C.3     
   5 N5            -2.3888     1.2480    -0.2529 N.am    
   6 C6            -1.2250     2.1303    -0.0516 C.3     
   7 C7            -3.3897     1.6029    -1.0828 C.2     
   8 O8            -4.2783     0.8131    -1.3359 O.2     
   9 C9            -3.4069     2.9533    -1.6854 C.ar    
  10 O10            1.2915     1.6396    -0.1540 O.3     
  11 C11            2.0411     0.5259    -0.1608 C.2     
  12 N12            1.2528    -0.5127    -0.1073 N.2     
  13 C13            3.5463     0.4822    -0.2209 C.3     
  14 O14            3.9674     0.4405    -1.5858 O.3     
  15 C15            5.3059     0.3978    -1.8174 C.ar    
  16 C16            5.7848     0.3559    -3.1188 C.ar    
  17 C17            7.1458     0.3124    -3.3516 C.ar    
  18 C18            8.0304     0.3107    -2.2889 C.ar    
  19 C19            7.5556     0.3520    -0.9910 C.ar    
  20 C20            6.1957     0.4018    -0.7531 C.ar    
  21 N21           -2.5079     3.8547    -1.3070 N.ar    
  22 C22           -2.4874     5.0654    -1.8171 C.ar    
  23 C23           -3.4133     5.4511    -2.7788 C.ar    
  24 C24           -4.3711     4.5415    -3.2040 C.ar    
  25 C25           -4.3649     3.2682    -2.6518 C.ar    
  26 F26           -3.3816     6.6994    -3.2944 F       
  27 F27           -5.2786     2.3501    -3.0357 F       
  28 H28           -1.4989    -1.3124    -0.9914 H       
  29 H29           -1.1300    -1.7388     0.6993 H       
  30 H30           -3.3771    -0.5306     0.2781 H       
  31 H31           -2.3294     0.1569     1.5439 H       
  32 H32           -1.2977     2.6251     0.9169 H       
  33 H33           -1.1816     2.8743    -0.8470 H       
  34 H34            3.9550     1.3718     0.2584 H       
  35 H35            3.9049    -0.4071     0.2973 H       
  36 H36            5.0943     0.3568    -3.9491 H       
  37 H37            7.5192     0.2794    -4.3645 H       
  38 H38            9.0941     0.2767    -2.4730 H       
  39 H39            8.2486     0.3498    -0.1627 H       
  40 H40            5.8253     0.4340     0.2609 H       
  41 H41           -1.7406     5.7709    -1.4840 H       
  42 H42           -5.1019     4.8168    -3.9500 H       
@<TRIPOS>BOND
   1    1    2 2
   2    1   10 1
   3    1    6 1
   4    2    3 1
   5    2   12 1
   6    3    4 1
   7    3   28 1
   8    3   29 1
   9    4    5 1
  10    4   30 1
  11    4   31 1
  12    5    6 1
  13    5    7 am
  14    6   32 1
  15    6   33 1
  16    7    8 2
  17    7    9 1
  18    9   21 ar
  19    9   25 ar
  20   10   11 1
  21   11   12 2
  22   11   13 1
  23   13   14 1
  24   13   34 1
  25   13   35 1
  26   14   15 1
  27   15   16 ar
  28   15   20 ar
  29   16   17 ar
  30   16   36 1
  31   17   18 ar
  32   17   37 1
  33   18   19 ar
  34   18   38 1
  35   19   20 ar
  36   19   39 1
  37   20   40 1
  38   21   22 ar
  39   22   23 ar
  40   22   41 1
  41   23   24 ar
  42   23   26 1
  43   24   25 ar
  44   24   42 1
  45   25   27 1

#	End of record

