#	Name: ASD01913744
#	Creating user name:	WinNT
#	Creation time:	15. 06. 2019 20:02

#	Modifying user name:	WinNT
#	Modification time:	15. 06. 2019 20:02

#	Program:	/corina/corina34_cracker 3.40 0067  02.08.2006

@<TRIPOS>MOLECULE
ASD01913744
  50   52    0    0    0
SMALL
NO_CHARGES


@<TRIPOS>ATOM
   1 O1            -0.0163     1.3509     0.0095 O.3     
   2 C2             0.0021    -0.0041     0.0020 C.ar    
   3 C3            -1.1997    -0.7066     0.0097 C.ar    
   4 C4            -1.1741    -2.0870     0.0016 C.ar    
   5 C5             0.0722    -2.7299    -0.0142 C.ar    
   6 C6             1.2331    -1.9555    -0.0211 C.ar    
   7 N7             1.1628    -0.6409    -0.0180 N.ar    
   8 C8             0.1548    -4.2038    -0.0229 C.2     
   9 N9             1.3578    -4.8112    -0.0381 N.am    
  10 O10           -0.8624    -4.8697    -0.0164 O.2     
  11 C11            1.2480     2.0170     0.0010 C.3     
  12 C12            1.0303     3.5081     0.0111 C.ar    
  13 C13            0.9391     4.2040     1.2068 C.ar    
  14 C14            0.7397     5.5712     1.1768 C.ar    
  15 N15            0.6360     6.2127     0.0294 N.ar    
  16 C16            0.7177     5.5836    -1.1267 C.ar    
  17 C17            0.9222     4.2176    -1.1752 C.ar    
  18 C18            1.4397    -6.2739    -0.0468 C.3     
  19 C19            2.7675    -6.7066    -0.6719 C.3     
  20 C20            1.3570    -6.7978     1.3883 C.3     
  21 Br21          -2.8484     0.2192     0.0317 Br      
  22 C22            2.8531    -8.2342    -0.6810 C.3     
  23 C23            4.1808    -8.6669    -1.3061 C.3     
  24 C24            4.2635    -8.1429    -2.7412 C.3     
  25 C25            4.1779    -6.6154    -2.7322 C.3     
  26 C26            2.8502    -6.1827    -2.1070 C.3     
  27 H27           -2.0911    -2.6575     0.0076 H       
  28 H28            2.1986    -2.4394    -0.0329 H       
  29 H29            2.1693    -4.2799    -0.0433 H       
  30 H30            1.8174     1.7269     0.8840 H       
  31 H31            1.8004     1.7365    -0.8958 H       
  32 H32            1.0226     3.6841     2.1498 H       
  33 H33            0.6676     6.1206     2.1039 H       
  34 H34            0.6276     6.1428    -2.0462 H       
  35 H35            0.9885     3.7080    -2.1251 H       
  36 H36            0.6138    -6.6806    -0.6303 H       
  37 H37            3.5934    -6.2999    -0.0885 H       
  38 H38            0.4111    -6.4896     1.8337 H       
  39 H39            1.4180    -7.8861     1.3819 H       
  40 H40            2.1830    -6.3911     1.9718 H       
  41 H41            2.7941    -8.6074     0.3414 H       
  42 H42            2.0271    -8.6409    -1.2644 H       
  43 H43            5.0068    -8.2601    -0.7227 H       
  44 H44            4.2418    -9.7552    -1.3126 H       
  45 H45            5.2094    -8.4512    -3.1866 H       
  46 H46            3.4376    -8.5497    -3.3247 H       
  47 H47            5.0039    -6.2086    -2.1487 H       
  48 H48            4.2369    -6.2421    -3.7546 H       
  49 H49            2.0242    -6.5894    -2.6905 H       
  50 H50            2.7892    -5.0944    -2.1006 H       
@<TRIPOS>BOND
   1    1    2 1
   2    1   11 1
   3    2    3 ar
   4    2    7 ar
   5    3    4 ar
   6    3   21 1
   7    4    5 ar
   8    4   27 1
   9    5    6 ar
  10    5    8 1
  11    6    7 ar
  12    6   28 1
  13    8    9 am
  14    8   10 2
  15    9   18 1
  16    9   29 1
  17   11   12 1
  18   11   30 1
  19   11   31 1
  20   12   13 ar
  21   12   17 ar
  22   13   14 ar
  23   13   32 1
  24   14   15 ar
  25   14   33 1
  26   15   16 ar
  27   16   17 ar
  28   16   34 1
  29   17   35 1
  30   18   19 1
  31   18   20 1
  32   18   36 1
  33   19   22 1
  34   19   26 1
  35   19   37 1
  36   20   38 1
  37   20   39 1
  38   20   40 1
  39   22   23 1
  40   22   41 1
  41   22   42 1
  42   23   24 1
  43   23   43 1
  44   23   44 1
  45   24   25 1
  46   24   45 1
  47   24   46 1
  48   25   26 1
  49   25   47 1
  50   25   48 1
  51   26   49 1
  52   26   50 1

#	End of record

