#	Name: ASD01910667
#	Creating user name:	WinNT
#	Creation time:	15. 06. 2019 19:56

#	Modifying user name:	WinNT
#	Modification time:	15. 06. 2019 19:56

#	Program:	/corina/corina34_cracker 3.40 0067  02.08.2006

@<TRIPOS>MOLECULE
ASD01910667
  31   33    0    0    0
SMALL
NO_CHARGES


@<TRIPOS>ATOM
   1 C1            -0.0158     1.3153     0.0093 C.ar    
   2 N2             0.0021    -0.0041     0.0020 N.ar    
   3 C3             1.1292    -0.6901    -0.0125 C.ar    
   4 C4             2.3495    -0.0481    -0.0203 C.ar    
   5 C5             2.3793     1.3534    -0.0130 C.ar    
   6 C6             1.1573     2.0400     0.0020 C.ar    
   7 C7             3.6229     2.0634    -0.0202 C.1     
   8 C8             4.6424     2.6456    -0.0261 C.1     
   9 C9             5.8859     3.3556    -0.0333 C.ar    
  10 C10            5.8916     4.7553    -0.0258 C.ar    
  11 C11            7.0778     5.4290    -0.0321 C.ar    
  12 C12            8.2848     4.7206    -0.0452 C.ar    
  13 C13            8.2816     3.3259    -0.0528 C.ar    
  14 C14            7.0938     2.6493    -0.0419 C.ar    
  15 C15            7.1102     6.9346    -0.0261 C.3     
  16 C16            8.3168     7.4253     0.7707 C.3     
  17 N17            9.5436     6.7761     0.3168 N.am    
  18 C18            9.5531     5.4790    -0.0494 C.2     
  19 O19           10.5918     4.9397    -0.3786 O.2     
  20 H20           -0.9626     1.8349     0.0166 H       
  21 H21            1.0954    -1.7696    -0.0179 H       
  22 H22            3.2679    -0.6161    -0.0314 H       
  23 H23            1.1350     3.1197     0.0076 H       
  24 H24            4.9593     5.3005    -0.0155 H       
  25 H25            9.2147     2.7821    -0.0636 H       
  26 H26            7.0876     1.5693    -0.0476 H       
  27 H27            7.1805     7.2993    -1.0509 H       
  28 H28            6.1962     7.3146     0.4302 H       
  29 H29            8.4146     8.5035     0.6445 H       
  30 H30            8.1632     7.2020     1.8265 H       
  31 H31           10.3667     7.2879     0.2778 H       
@<TRIPOS>BOND
   1    1    2 ar
   2    1    6 ar
   3    1   20 1
   4    2    3 ar
   5    3    4 ar
   6    3   21 1
   7    4    5 ar
   8    4   22 1
   9    5    6 ar
  10    5    7 1
  11    6   23 1
  12    7    8 3
  13    8    9 1
  14    9   10 ar
  15    9   14 ar
  16   10   11 ar
  17   10   24 1
  18   11   12 ar
  19   11   15 1
  20   12   13 ar
  21   12   18 1
  22   13   14 ar
  23   13   25 1
  24   14   26 1
  25   15   16 1
  26   15   27 1
  27   15   28 1
  28   16   17 1
  29   16   29 1
  30   16   30 1
  31   17   18 am
  32   17   31 1
  33   18   19 2

#	End of record

