#	Name: ASD03240404
#	Creating user name:	WinNT
#	Creation time:	15. 06. 2019 20:34

#	Modifying user name:	WinNT
#	Modification time:	15. 06. 2019 20:34

#	Program:	/corina/corina34_cracker 3.40 0067  02.08.2006

@<TRIPOS>MOLECULE
ASD03240404
  37   39    0    0    0
SMALL
NO_CHARGES


@<TRIPOS>ATOM
   1 C1            -0.0688     1.4761     0.0646 C.ar    
   2 C2            -0.1573     0.0988    -0.0107 C.ar    
   3 C3             2.2790     2.5205    -2.2617 C.ar    
   4 C4             1.3906     2.9286    -1.2833 C.ar    
   5 C5             1.2783     2.1488     0.0014 C.3     
   6 C6             2.3857     3.2310    -3.4402 C.ar    
   7 C7             1.5968     4.3610    -3.6432 C.ar    
   8 C8             0.7041     4.7679    -2.6543 C.ar    
   9 C9             0.6052     4.0501    -1.4795 C.ar    
  10 C10            1.4297     3.0999     1.1902 C.3     
  11 C11            1.7078     5.1296    -4.9087 C.2     
  12 C12            0.9997     6.2486    -5.2371 C.2     
  13 N13            1.3959     6.6359    -6.4662 N.pl3   
  14 N14            2.3728     5.7385    -6.9141 N.2     
  15 C15            2.5675     4.8395    -5.9859 C.2     
  16 N16            1.4402     2.3256     2.4386 N.3     
  17 C17           -1.3925    -0.5195     0.0467 C.ar    
  18 C18           -2.5405     0.2402     0.1796 C.ar    
  19 C19           -2.4518     1.6201     0.2551 C.ar    
  20 C20           -1.2157     2.2373     0.1922 C.ar    
  21 Cl21          -4.0918    -0.5357     0.2512 Cl      
  22 Cl22          -3.8920     2.5752     0.4213 Cl      
  23 H23            0.7390    -0.4947    -0.1149 H       
  24 H24            2.8933     1.6468    -2.1015 H       
  25 H25            2.0635     1.3937     0.0379 H       
  26 H26            3.0800     2.9117    -4.2034 H       
  27 H27            0.0902     5.6433    -2.8066 H       
  28 H28           -0.0869     4.3645    -0.7123 H       
  29 H29            2.3650     3.6518     1.0972 H       
  30 H30            0.5945     3.8001     1.2040 H       
  31 H31            0.2564     6.7359    -4.6235 H       
  32 H32            1.0616     7.4037    -6.9558 H       
  33 H33            3.2617     4.0138    -6.0386 H       
  34 H34            1.5393     2.9316     3.2392 H       
  35 H35            0.6116     1.7551     2.5172 H       
  36 H36           -1.4609    -1.5957    -0.0126 H       
  37 H37           -1.1459     3.3134     0.2510 H       
@<TRIPOS>BOND
   1    1    2 ar
   2    1    5 1
   3    1   20 ar
   4    2   17 ar
   5    2   23 1
   6    3    4 ar
   7    3    6 ar
   8    3   24 1
   9    4    5 1
  10    4    9 ar
  11    5   10 1
  12    5   25 1
  13    6    7 ar
  14    6   26 1
  15    7    8 ar
  16    7   11 1
  17    8    9 ar
  18    8   27 1
  19    9   28 1
  20   10   16 1
  21   10   29 1
  22   10   30 1
  23   11   12 2
  24   11   15 1
  25   12   13 1
  26   12   31 1
  27   13   14 1
  28   13   32 1
  29   14   15 2
  30   15   33 1
  31   16   34 1
  32   16   35 1
  33   17   18 ar
  34   17   36 1
  35   18   19 ar
  36   18   21 1
  37   19   20 ar
  38   19   22 1
  39   20   37 1

#	End of record

