#	Name: ASD04590938
#	Creating user name:	WinNT
#	Creation time:	15. 06. 2019 20:51

#	Modifying user name:	WinNT
#	Modification time:	15. 06. 2019 20:51

#	Program:	/corina/corina34_cracker 3.40 0067  02.08.2006

@<TRIPOS>MOLECULE
ASD04590938
  64   69    0    0    0
SMALL
NO_CHARGES


@<TRIPOS>ATOM
   1 N1            -0.0171     1.3235    -0.0119 N.ar    
   2 C2             0.0017    -0.0035    -0.0051 C.ar    
   3 N3             1.1296    -0.6948    -0.0122 N.ar    
   4 C4             2.3050    -0.0726    -0.0266 C.ar    
   5 C5             2.3190     1.3364    -0.0341 C.ar    
   6 C6             1.1069     2.0203    -0.0262 C.ar    
   7 N7             3.6031    -0.5195    -0.0374 N.pl3   
   8 C8             4.4824     0.5494    -0.0518 C.ar    
   9 C9             3.7312     1.7384    -0.0504 C.ar    
  10 C10            5.8681     0.6417    -0.0666 C.ar    
  11 N11            6.4613     1.8180    -0.0786 N.ar    
  12 C12            5.7850     2.9532    -0.0777 C.ar    
  13 C13            4.4064     2.9584    -0.0635 C.ar    
  14 N14           -1.2019    -0.6887     0.0103 N.pl3   
  15 C15           -2.4019     0.0120     0.1313 C.ar    
  16 N16           -2.3782     1.3200     0.3318 N.ar    
  17 C17           -3.4880     2.0232     0.4517 C.ar    
  18 C18           -4.7291     1.4088     0.3708 C.ar    
  19 C19           -4.7935     0.0326     0.1602 C.ar    
  20 C20           -3.6090    -0.6707     0.0341 C.ar    
  21 N21           -5.9023     2.1617     0.4995 N.3     
  22 C22            4.0016    -1.9292    -0.0333 C.3     
  23 C23           -5.5953     3.5832     0.7111 C.3     
  24 C24            3.4408    -2.6524    -1.2752 C.3     
  25 O25            2.3016    -1.9509    -1.7774 O.3     
  26 C26            3.0310    -4.0624    -0.8152 C.3     
  27 C27            3.3569    -4.1469     0.6903 C.3     
  28 C28            3.3554    -2.6717     1.1626 C.3     
  29 C29           -6.7740     1.9826    -0.6700 C.3     
  30 C30           -8.0767     2.7567    -0.4553 C.3     
  31 N31           -7.7697     4.1782    -0.2437 N.3     
  32 C32           -6.8980     4.3573     0.9258 C.3     
  33 C33           -7.6055     3.8292     2.1754 C.3     
  34 C34           -6.5846     5.8440     1.1060 C.3     
  35 H35            1.0847     3.1001    -0.0319 H       
  36 H36            6.4645    -0.2586    -0.0679 H       
  37 H37            6.3203     3.8911    -0.0879 H       
  38 H38            3.8597     3.8898    -0.0634 H       
  39 H39           -1.2103    -1.6559    -0.0630 H       
  40 H40           -3.4296     3.0891     0.6151 H       
  41 H41           -5.7459    -0.4722     0.0929 H       
  42 H42           -3.6218    -1.7380    -0.1302 H       
  43 H43            5.0874    -2.0177     0.0018 H       
  44 H44           -4.9592     3.6910     1.5897 H       
  45 H45           -5.0778     3.9776    -0.1634 H       
  46 H46            4.2080    -2.7188    -2.0467 H       
  47 H47            1.9031    -2.3567    -2.5594 H       
  48 H48            1.9631    -4.2116    -0.9749 H       
  49 H49            3.5995    -4.8139    -1.3630 H       
  50 H50            2.5900    -4.7163     1.2153 H       
  51 H51            4.3385    -4.5954     0.8435 H       
  52 H52            3.9591    -2.5536     2.0625 H       
  53 H53            2.3371    -2.3210     1.3305 H       
  54 H54           -6.2699     2.3589    -1.5603 H       
  55 H55           -6.9972     0.9235    -0.7984 H       
  56 H56           -8.7128     2.6490    -1.3339 H       
  57 H57           -8.5941     2.3623     0.4192 H       
  58 H58           -7.3558     4.5855    -1.0688 H       
  59 H59           -7.8276     2.7698     2.0469 H       
  60 H60           -6.9587     3.9622     3.0427 H       
  61 H61           -8.5342     4.3794     2.3270 H       
  62 H62           -7.5128     6.3952     1.2570 H       
  63 H63           -5.9381     5.9765     1.9735 H       
  64 H64           -6.0798     6.2193     0.2159 H       
@<TRIPOS>BOND
   1    1    2 ar
   2    1    6 ar
   3    2    3 ar
   4    2   14 1
   5    3    4 ar
   6    4    5 ar
   7    4    7 1
   8    5    6 ar
   9    5    9 1
  10    6   35 1
  11    7    8 1
  12    7   22 1
  13    8    9 ar
  14    8   10 ar
  15    9   13 ar
  16   10   11 ar
  17   10   36 1
  18   11   12 ar
  19   12   13 ar
  20   12   37 1
  21   13   38 1
  22   14   15 1
  23   14   39 1
  24   15   16 ar
  25   15   20 ar
  26   16   17 ar
  27   17   18 ar
  28   17   40 1
  29   18   19 ar
  30   18   21 1
  31   19   20 ar
  32   19   41 1
  33   20   42 1
  34   21   29 1
  35   21   23 1
  36   22   24 1
  37   22   28 1
  38   22   43 1
  39   23   32 1
  40   23   44 1
  41   23   45 1
  42   24   25 1
  43   24   26 1
  44   24   46 1
  45   25   47 1
  46   26   27 1
  47   26   48 1
  48   26   49 1
  49   27   28 1
  50   27   50 1
  51   27   51 1
  52   28   52 1
  53   28   53 1
  54   29   30 1
  55   29   54 1
  56   29   55 1
  57   30   31 1
  58   30   56 1
  59   30   57 1
  60   31   32 1
  61   31   58 1
  62   32   33 1
  63   32   34 1
  64   33   59 1
  65   33   60 1
  66   33   61 1
  67   34   62 1
  68   34   63 1
  69   34   64 1

#	End of record

