#	Name: ASD02408036
#	Creating user name:	WinNT
#	Creation time:	15. 06. 2019 20:21

#	Modifying user name:	WinNT
#	Modification time:	15. 06. 2019 20:21

#	Program:	/corina/corina34_cracker 3.40 0067  02.08.2006

@<TRIPOS>MOLECULE
ASD02408036
  40   42    0    0    0
SMALL
NO_CHARGES


@<TRIPOS>ATOM
   1 C1            -0.0167     1.3775     0.0096 C.ar    
   2 C2             0.0021    -0.0041     0.0020 C.ar    
   3 C3             1.2782     2.1484     0.0014 C.3     
   4 C4             1.6963     2.4130    -1.4221 C.2     
   5 N5             2.8360     3.0940    -1.6501 N.am    
   6 N6             0.9447     1.9701    -2.3931 N.2     
   7 C7             1.2665     2.1750    -3.6768 C.2     
   8 C8             2.4397     2.8828    -3.9865 C.2     
   9 C9             3.2407     3.3484    -2.9123 C.2     
  10 N10            0.4586     1.6980    -4.6796 N.pl3   
  11 O11            4.2689     3.9678    -3.1243 O.2     
  12 C12           -0.7629     0.9604    -4.3476 C.3     
  13 C13           -1.1880    -0.7122     0.0096 C.ar    
  14 C14           -2.3952    -0.0348     0.0247 C.ar    
  15 C15           -2.4115     1.3473     0.0323 C.ar    
  16 C16           -1.2230     2.0531     0.0190 C.ar    
  17 F17           -1.1709    -2.0631     0.0017 F       
  18 C18           -1.7767     1.0738    -5.4997 C.3     
  19 C19           -2.0406    -0.3622    -5.9974 C.3     
  20 C20           -1.6823    -1.2565    -4.7846 C.3     
  21 C21           -0.4462    -0.5407    -4.1855 C.3     
  22 C22            2.8186     3.1226    -5.3465 C.1     
  23 N23            3.1192     3.3129    -6.4253 N.1     
  24 H24            0.9445    -0.5315    -0.0102 H       
  25 H25            1.1401     3.0962     0.5217 H       
  26 H26            2.0505     1.5668     0.5048 H       
  27 H27            3.3695     3.4041    -0.9017 H       
  28 H28            0.6967     1.8494    -5.6076 H       
  29 H29           -1.1973     1.3525    -3.4281 H       
  30 H30           -3.3239    -0.5860     0.0303 H       
  31 H31           -3.3531     1.8760     0.0441 H       
  32 H32           -1.2367     3.1330     0.0253 H       
  33 H33           -2.7033     1.5203    -5.1390 H       
  34 H34           -1.3598     1.6777    -6.3057 H       
  35 H35           -3.0898    -0.4861    -6.2660 H       
  36 H36           -1.3984    -0.5958    -6.8466 H       
  37 H37           -2.5015    -1.2792    -4.0660 H       
  38 H38           -1.4248    -2.2643    -5.1105 H       
  39 H39            0.4535    -0.8030    -4.7421 H       
  40 H40           -0.3318    -0.7948    -3.1318 H       
@<TRIPOS>BOND
   1    1    2 ar
   2    1    3 1
   3    1   16 ar
   4    2   13 ar
   5    2   24 1
   6    3    4 1
   7    3   25 1
   8    3   26 1
   9    4    5 1
  10    4    6 2
  11    5    9 am
  12    5   27 1
  13    6    7 1
  14    7    8 2
  15    7   10 1
  16    8    9 1
  17    8   22 1
  18    9   11 2
  19   10   12 1
  20   10   28 1
  21   12   18 1
  22   12   21 1
  23   12   29 1
  24   13   14 ar
  25   13   17 1
  26   14   15 ar
  27   14   30 1
  28   15   16 ar
  29   15   31 1
  30   16   32 1
  31   18   19 1
  32   18   33 1
  33   18   34 1
  34   19   20 1
  35   19   35 1
  36   19   36 1
  37   20   21 1
  38   20   37 1
  39   20   38 1
  40   21   39 1
  41   21   40 1
  42   22   23 3

#	End of record

