#	Name: ASD01880591
#	Creating user name:	WinNT
#	Creation time:	15. 06. 2019 19:41

#	Modifying user name:	WinNT
#	Modification time:	15. 06. 2019 19:41

#	Program:	/corina/corina34_cracker 3.40 0067  02.08.2006

@<TRIPOS>MOLECULE
ASD01880591
  41   43    0    0    0
SMALL
NO_CHARGES


@<TRIPOS>ATOM
   1 N1            -0.0163     1.3124     0.0178 N.ar    
   2 C2             0.0027    -0.0051     0.0037 C.ar    
   3 N3             1.1331    -0.6826    -0.0187 N.ar    
   4 C4             2.2992    -0.0555    -0.0285 C.ar    
   5 C5             2.3190     1.3320    -0.0147 C.ar    
   6 C6             1.1102     2.0076     0.0093 C.ar    
   7 C7             3.6242     2.0854    -0.0247 C.3     
   8 O8             4.0813     2.2285    -1.3710 O.3     
   9 C9             5.2524     2.8886    -1.5571 C.ar    
  10 C10            5.7550     3.0635    -2.8428 C.ar    
  11 C11            6.9394     3.7317    -3.0298 C.ar    
  12 C12            7.6463     4.2392    -1.9345 C.ar    
  13 C13            7.1368     4.0612    -0.6453 C.ar    
  14 C14            5.9456     3.3943    -0.4639 C.ar    
  15 C15            7.7430     4.0860    -4.2562 C.3     
  16 N16            8.9241     4.8124    -3.7764 N.am    
  17 C17            8.8643     4.8985    -2.4365 C.2     
  18 O18            9.6970     5.4435    -1.7379 O.2     
  19 Br19           3.9153    -1.0369    -0.0602 Br      
  20 C20            1.0778     3.5142     0.0250 C.3     
  21 F21            1.8103     4.0078    -1.0599 F       
  22 F22           -0.2473     3.9531    -0.0687 F       
  23 F23            1.6402     3.9803     1.2181 F       
  24 C24           10.7615     7.3535    -5.9054 C.3     
  25 C25            9.6452     6.7877    -5.0252 C.3     
  26 C26            9.9930     5.3542    -4.6192 C.3     
  27 H27           -0.9330    -0.5443     0.0112 H       
  28 H28            3.4778     3.0715     0.4161 H       
  29 H29            4.3658     1.5350     0.5543 H       
  30 H30            5.2141     2.6736    -3.6925 H       
  31 H31            7.6749     4.4487     0.2071 H       
  32 H32            5.5523     3.2573     0.5326 H       
  33 H33            8.0475     3.1795    -4.7794 H       
  34 H34            7.1554     4.7219    -4.9184 H       
  35 H35           11.6991     7.3506    -5.3496 H       
  36 H36           10.8668     6.7382    -6.7989 H       
  37 H37           10.5137     8.3748    -6.1947 H       
  38 H38            9.5399     7.4030    -4.1317 H       
  39 H39            8.7075     6.7906    -5.5810 H       
  40 H40           10.9307     5.3513    -4.0634 H       
  41 H41           10.0983     4.7388    -5.5127 H       
@<TRIPOS>BOND
   1    1    2 ar
   2    1    6 ar
   3    2    3 ar
   4    2   27 1
   5    3    4 ar
   6    4    5 ar
   7    4   19 1
   8    5    6 ar
   9    5    7 1
  10    6   20 1
  11    7    8 1
  12    7   28 1
  13    7   29 1
  14    8    9 1
  15    9   10 ar
  16    9   14 ar
  17   10   11 ar
  18   10   30 1
  19   11   12 ar
  20   11   15 1
  21   12   13 ar
  22   12   17 1
  23   13   14 ar
  24   13   31 1
  25   14   32 1
  26   15   16 1
  27   15   33 1
  28   15   34 1
  29   16   17 am
  30   16   26 1
  31   17   18 2
  32   20   21 1
  33   20   22 1
  34   20   23 1
  35   24   25 1
  36   24   35 1
  37   24   36 1
  38   24   37 1
  39   25   26 1
  40   25   38 1
  41   25   39 1
  42   26   40 1
  43   26   41 1

#	End of record

