#	Name: ASD03320017
#	Creating user name:	WinNT
#	Creation time:	15. 06. 2019 20:35

#	Modifying user name:	WinNT
#	Modification time:	15. 06. 2019 20:35

#	Program:	/corina/corina34_cracker 3.40 0067  02.08.2006

@<TRIPOS>MOLECULE
ASD03320017
  64   68    0    0    0
SMALL
NO_CHARGES


@<TRIPOS>ATOM
   1 C1            -0.1500     0.5382     0.7679 C.ar    
   2 C2            -0.0776    -0.8447     0.6024 C.ar    
   3 C3             1.0004     1.2954     0.7514 C.ar    
   4 C4             2.2396     0.6780     0.5690 C.ar    
   5 C5             2.3111    -0.7068     0.4035 C.ar    
   6 C6             1.1596    -1.4624     0.4207 C.ar    
   7 C7             3.4749     1.4898     0.5507 C.2     
   8 N8             3.5003     2.6632    -0.1117 N.am    
   9 O9             4.4677     1.0990     1.1331 O.2     
  10 C10           -1.3170    -1.6592     0.6203 C.ar    
  11 C11           -1.2576    -3.0406     0.4562 C.ar    
  12 C12           -2.4527    -3.7598     0.4815 C.ar    
  13 N13           -3.5963    -3.1045     0.6601 N.ar    
  14 C14           -3.6103    -1.7952     0.8118 C.ar    
  15 N15           -2.5053    -1.0802     0.7993 N.ar    
  16 N16           -2.4484    -5.1374     0.3224 N.pl3   
  17 C17           -3.6356    -5.8611     0.4656 C.ar    
  18 C18           -3.8320    -7.0254    -0.2638 C.ar    
  19 C19           -5.0108    -7.7403    -0.1191 C.ar    
  20 C20           -5.9912    -7.2907     0.7541 C.ar    
  21 C21           -5.7940    -6.1310     1.4798 C.ar    
  22 C22           -4.6186    -5.4189     1.3428 C.ar    
  23 C23            4.6818     3.5346    -0.0446 C.3     
  24 C24            5.1597     3.8233    -1.4731 C.3     
  25 N25            4.0066     4.2542    -2.2759 N.am    
  26 C26            2.8250     3.3828    -2.3431 C.3     
  27 C27            2.3494     3.0915    -0.9191 C.3     
  28 C28            4.0320     5.4276    -2.9384 C.2     
  29 C29            5.2682     6.2370    -2.9605 C.ar    
  30 O30            3.0380     5.8202    -3.5177 O.2     
  31 C31            5.2281     7.5889    -2.6112 C.ar    
  32 C32            6.3881     8.3389    -2.6338 C.ar    
  33 C33            7.5859     7.7538    -3.0010 C.ar    
  34 C34            7.6317     6.4147    -3.3486 C.ar    
  35 C35            6.4827     5.6526    -3.3250 C.ar    
  36 Cl36           3.7247     8.3248    -2.1505 Cl      
  37 O37           -5.2064    -8.8805    -0.8322 O.3     
  38 C38           -6.4443    -9.5659    -0.6330 C.3     
  39 H39           -1.1089     1.0161     0.9044 H       
  40 H40            0.9440     2.3663     0.8791 H       
  41 H41            3.2690    -1.1852     0.2624 H       
  42 H42            1.2148    -2.5334     0.2931 H       
  43 H43           -0.3117    -3.5418     0.3129 H       
  44 H44           -4.5565    -1.2946     0.9544 H       
  45 H45           -1.6216    -5.5988     0.1118 H       
  46 H46           -3.0681    -7.3736    -0.9432 H       
  47 H47           -6.9097    -7.8476     0.8665 H       
  48 H48           -6.5589    -5.7833     2.1584 H       
  49 H49           -4.4669    -4.5132     1.9112 H       
  50 H50            4.4189     4.4701     0.4493 H       
  51 H51            5.4742     3.0343     0.5121 H       
  52 H52            5.9091     4.6146    -1.4552 H       
  53 H53            5.5888     2.9193    -1.9050 H       
  54 H54            2.0327     3.8831    -2.8998 H       
  55 H55            3.0880     2.4474    -2.8369 H       
  56 H56            1.6000     2.3002    -0.9384 H       
  57 H57            1.9203     3.9945    -0.4848 H       
  58 H58            6.3593     9.3844    -2.3645 H       
  59 H59            8.4899     8.3445    -3.0171 H       
  60 H60            8.5708     5.9645    -3.6348 H       
  61 H61            6.5206     4.6080    -3.5965 H       
  62 H62           -7.2711    -8.9078    -0.9003 H       
  63 H63           -6.4715   -10.4567    -1.2606 H       
  64 H64           -6.5347    -9.8560     0.4137 H       
@<TRIPOS>BOND
   1    1    2 ar
   2    1    3 ar
   3    1   39 1
   4    2   10 1
   5    2    6 ar
   6    3    4 ar
   7    3   40 1
   8    4    5 ar
   9    4    7 1
  10    5    6 ar
  11    5   41 1
  12    6   42 1
  13    7    8 am
  14    7    9 2
  15    8   23 1
  16    8   27 1
  17   10   11 ar
  18   10   15 ar
  19   11   12 ar
  20   11   43 1
  21   12   13 ar
  22   12   16 1
  23   13   14 ar
  24   14   15 ar
  25   14   44 1
  26   16   17 1
  27   16   45 1
  28   17   18 ar
  29   17   22 ar
  30   18   19 ar
  31   18   46 1
  32   19   20 ar
  33   19   37 1
  34   20   21 ar
  35   20   47 1
  36   21   22 ar
  37   21   48 1
  38   22   49 1
  39   23   24 1
  40   23   50 1
  41   23   51 1
  42   24   25 1
  43   24   52 1
  44   24   53 1
  45   25   26 1
  46   25   28 am
  47   26   27 1
  48   26   54 1
  49   26   55 1
  50   27   56 1
  51   27   57 1
  52   28   29 1
  53   28   30 2
  54   29   31 ar
  55   29   35 ar
  56   31   32 ar
  57   31   36 1
  58   32   33 ar
  59   32   58 1
  60   33   34 ar
  61   33   59 1
  62   34   35 ar
  63   34   60 1
  64   35   61 1
  65   37   38 1
  66   38   62 1
  67   38   63 1
  68   38   64 1

#	End of record

