#	Name: ASD04880295
#	Creating user name:	WinNT
#	Creation time:	15. 06. 2019 20:53

#	Modifying user name:	WinNT
#	Modification time:	15. 06. 2019 20:53

#	Program:	/corina/corina34_cracker 3.40 0067  02.08.2006

@<TRIPOS>MOLECULE
ASD04880295
  47   49    0    0    0
SMALL
NO_CHARGES


@<TRIPOS>ATOM
   1 C1            -0.0144     1.2118     0.0087 C.2     
   2 O2             0.0542    -0.0020    -0.0143 O.2     
   3 C3             1.2211     2.0224    -0.0189 C.ar    
   4 C4             2.4684     1.4023     0.0730 C.ar    
   5 C5             3.6192     2.1663     0.0461 C.ar    
   6 C6             3.5357     3.5447    -0.0714 C.ar    
   7 C7             2.3021     4.1633    -0.1627 C.ar    
   8 C8             1.1457     3.4107    -0.1427 C.ar    
   9 F9             4.8277     1.5688     0.1348 F       
  10 N10           -1.2173     1.8180     0.0537 N.am    
  11 N11           -1.4297     3.1878     0.1954 N.2     
  12 C12           -2.6722     3.5289     0.2113 C.2     
  13 C13           -3.5362     2.2965     0.0665 C.3     
  14 C14           -2.5207     1.1421    -0.0452 C.3     
  15 C15           -2.6571     0.4302    -1.3926 C.3     
  16 C16           -2.7036     0.1539     1.1084 C.3     
  17 C17           -3.1740     4.9081     0.3493 C.ar    
  18 C18           -2.2755     5.9712     0.4761 C.ar    
  19 C19           -2.7514     7.2621     0.6047 C.ar    
  20 C20           -4.1242     7.5019     0.6077 C.ar    
  21 C21           -5.0162     6.4473     0.4818 C.ar    
  22 C22           -4.5487     5.1565     0.3477 C.ar    
  23 O23           -4.5902     8.7725     0.7348 O.3     
  24 C24           -6.0086     8.9468     0.7301 C.3     
  25 O25           -1.8799     8.2988     0.7288 O.3     
  26 C26           -0.4869     7.9801     0.7183 C.3     
  27 H27            2.5335     0.3282     0.1652 H       
  28 H28            4.4377     4.1384    -0.0913 H       
  29 H29            2.2438     5.2378    -0.2536 H       
  30 H30            0.1836     3.8954    -0.2186 H       
  31 H31           -4.1703     2.1689     0.9438 H       
  32 H32           -4.1412     2.3578    -0.8381 H       
  33 H33           -1.8813    -0.3303    -1.4819 H       
  34 H34           -3.6375    -0.0418    -1.4565 H       
  35 H35           -2.5496     1.1553    -2.1992 H       
  36 H36           -2.6288     0.6852     2.0573 H       
  37 H37           -3.6838    -0.3166     1.0318 H       
  38 H38           -1.9286    -0.6109     1.0581 H       
  39 H39           -1.2118     5.7841     0.4741 H       
  40 H40           -6.0793     6.6376     0.4850 H       
  41 H41           -5.2454     4.3376     0.2454 H       
  42 H42           -6.2449    10.0053     0.8384 H       
  43 H43           -6.4169     8.5778    -0.2108 H       
  44 H44           -6.4458     8.3902     1.5590 H       
  45 H45            0.0959     8.8950     0.8247 H       
  46 H46           -0.2618     7.3075     1.5460 H       
  47 H47           -0.2324     7.4947    -0.2239 H       
@<TRIPOS>BOND
   1    1    2 2
   2    1    3 1
   3    1   10 am
   4    3    4 ar
   5    3    8 ar
   6    4    5 ar
   7    4   27 1
   8    5    6 ar
   9    5    9 1
  10    6    7 ar
  11    6   28 1
  12    7    8 ar
  13    7   29 1
  14    8   30 1
  15   10   11 1
  16   10   14 1
  17   11   12 2
  18   12   13 1
  19   12   17 1
  20   13   14 1
  21   13   31 1
  22   13   32 1
  23   14   15 1
  24   14   16 1
  25   15   33 1
  26   15   34 1
  27   15   35 1
  28   16   36 1
  29   16   37 1
  30   16   38 1
  31   17   18 ar
  32   17   22 ar
  33   18   19 ar
  34   18   39 1
  35   19   20 ar
  36   19   25 1
  37   20   21 ar
  38   20   23 1
  39   21   22 ar
  40   21   40 1
  41   22   41 1
  42   23   24 1
  43   24   42 1
  44   24   43 1
  45   24   44 1
  46   25   26 1
  47   26   45 1
  48   26   46 1
  49   26   47 1

#	End of record

