#	Name: ASD07300393
#	Creating user name:	WinNT
#	Creation time:	15. 06. 2019 21:09

#	Modifying user name:	WinNT
#	Modification time:	15. 06. 2019 21:09

#	Program:	/corina/corina34_cracker 3.40 0067  02.08.2006

@<TRIPOS>MOLECULE
ASD07300393
  50   54    0    0    0
SMALL
NO_CHARGES


@<TRIPOS>ATOM
   1 C1            -0.8616     0.9889    -0.1295 C.ar    
   2 C2            -1.0251    -0.3818    -0.3527 C.ar    
   3 C3             0.0598    -1.2307    -0.1928 C.ar    
   4 C4             1.2749    -0.6785     0.1858 C.ar    
   5 C5             1.3647     0.6856     0.3896 C.ar    
   6 N6             0.3167     1.4705     0.2301 N.ar    
   7 C7            -2.9757     0.6166    -0.7003 C.2     
   8 N8            -2.0999     1.5789    -0.3560 N.am    
   9 N9            -2.3550    -0.5785    -0.7126 N.am    
  10 O10           -4.1493     0.7992    -0.9645 O.2     
  11 C11           -2.9749    -1.8650    -1.0398 C.3     
  12 C12           -3.5387    -2.4981     0.2338 C.3     
  13 C13           -4.1861    -3.8416    -0.1079 C.3     
  14 C14           -2.3882     2.9472    -0.2445 C.ar    
  15 C15           -3.6723     3.4093    -0.4993 C.ar    
  16 C16           -3.9556     4.7562    -0.3890 C.ar    
  17 C17           -2.9573     5.6477    -0.0235 C.ar    
  18 C18           -1.6737     5.1864     0.2309 C.ar    
  19 C19           -1.3908     3.8390     0.1263 C.ar    
  20 O20           -3.2368     6.9738     0.0851 O.3     
  21 C21           -4.9933     8.6893     2.6116 C.ar    
  22 C22           -4.9099     7.3783     3.1139 C.ar    
  23 C23           -5.4831     7.0912     4.3556 C.ar    
  24 C24           -6.1105     8.1176     5.0379 C.ar    
  25 C25           -6.1524     9.3839     4.4786 C.ar    
  26 N26           -5.6054     9.6339     3.3060 N.ar    
  27 C27           -3.9127     7.3929     1.1793 C.2     
  28 N28           -4.3541     8.6677     1.3872 N.pl3   
  29 N29           -4.2355     6.6379     2.1972 N.2     
  30 C30           -4.1817     9.8041     0.4788 C.3     
  31 H31           -0.0386    -2.2934    -0.3584 H       
  32 H32            2.1419    -1.3082     0.3204 H       
  33 H33            2.3101     1.1167     0.6844 H       
  34 H34           -3.7819    -1.7078    -1.7554 H       
  35 H35           -2.2274    -2.5282    -1.4750 H       
  36 H36           -2.7317    -2.6552     0.9495 H       
  37 H37           -4.2862    -1.8348     0.6691 H       
  38 H38           -3.4386    -4.5048    -0.5432 H       
  39 H39           -4.5878    -4.2926     0.7994 H       
  40 H40           -4.9932    -3.6844    -0.8236 H       
  41 H41           -4.4494     2.7155    -0.7842 H       
  42 H42           -4.9544     5.1158    -0.5876 H       
  43 H43           -0.8968     5.8808     0.5147 H       
  44 H44           -0.3928     3.4793     0.3290 H       
  45 H45           -5.4377     6.0953     4.7708 H       
  46 H46           -6.5650     7.9328     6.0000 H       
  47 H47           -6.6435    10.1828     5.0143 H       
  48 H48           -3.2499    10.3187     0.7135 H       
  49 H49           -4.1494     9.4452    -0.5499 H       
  50 H50           -5.0174    10.4938     0.5970 H       
@<TRIPOS>BOND
   1    1    2 ar
   2    1    6 ar
   3    1    8 1
   4    2    3 ar
   5    2    9 1
   6    3    4 ar
   7    3   31 1
   8    4    5 ar
   9    4   32 1
  10    5    6 ar
  11    5   33 1
  12    7    8 am
  13    7    9 am
  14    7   10 2
  15    8   14 1
  16    9   11 1
  17   11   12 1
  18   11   34 1
  19   11   35 1
  20   12   13 1
  21   12   36 1
  22   12   37 1
  23   13   38 1
  24   13   39 1
  25   13   40 1
  26   14   15 ar
  27   14   19 ar
  28   15   16 ar
  29   15   41 1
  30   16   17 ar
  31   16   42 1
  32   17   18 ar
  33   17   20 1
  34   18   19 ar
  35   18   43 1
  36   19   44 1
  37   20   27 1
  38   21   22 ar
  39   21   26 ar
  40   21   28 1
  41   22   23 ar
  42   22   29 1
  43   23   24 ar
  44   23   45 1
  45   24   25 ar
  46   24   46 1
  47   25   26 ar
  48   25   47 1
  49   27   28 1
  50   27   29 2
  51   28   30 1
  52   30   48 1
  53   30   49 1
  54   30   50 1

#	End of record

