#	Name: ASD01140141
#	Creating user name:	WinNT
#	Creation time:	15. 06. 2019 19:00

#	Modifying user name:	WinNT
#	Modification time:	15. 06. 2019 19:00

#	Program:	/corina/corina34_cracker 3.40 0067  02.08.2006

@<TRIPOS>MOLECULE
ASD01140141
  30   31    0    0    0
SMALL
NO_CHARGES


@<TRIPOS>ATOM
   1 C1            -0.5756     1.4744     0.3868 C.ar    
   2 C2            -0.3966     0.1037     0.3823 C.ar    
   3 C3             0.8522    -0.4312     0.0903 C.ar    
   4 C4             1.9171     0.4150    -0.1964 C.ar    
   5 C5             1.7304     1.7843    -0.1900 C.ar    
   6 C6             0.4860     2.3129     0.1012 C.ar    
   7 N7             1.0374    -1.8175     0.0853 N.pl3   
   8 C8            -0.0367    -2.6605    -0.1682 C.ar    
   9 C9            -0.5473    -3.4646     0.8433 C.ar    
  10 C10           -1.6145    -4.3014     0.5888 C.ar    
  11 C11           -2.1849    -4.3480    -0.6734 C.ar    
  12 C12           -1.6926    -3.5587    -1.6897 C.ar    
  13 C13           -0.6164    -2.7007    -1.4470 C.ar    
  14 C14           -0.0849    -1.8540    -2.5287 C.2     
  15 O15            0.8874    -1.1528    -2.3294 O.2     
  16 O16           -0.6769    -1.8570    -3.7394 O.3     
  17 Cl17          -1.7301    -0.9481     0.7417 Cl      
  18 Cl18           3.4797    -0.2475    -0.5614 Cl      
  19 C19            2.8842     2.7025    -0.5007 C.3     
  20 H20           -1.5470     1.8908     0.6093 H       
  21 H21            0.3431     3.3834     0.1054 H       
  22 H22            1.9160    -2.1901     0.2588 H       
  23 H23           -0.1083    -3.4349     1.8295 H       
  24 H24           -2.0078    -4.9245     1.3785 H       
  25 H25           -3.0197    -5.0069    -0.8616 H       
  26 H26           -2.1406    -3.5997    -2.6715 H       
  27 H27           -0.2922    -1.2850    -4.4176 H       
  28 H28            2.9168     2.8951    -1.5730 H       
  29 H29            2.7537     3.6436     0.0336 H       
  30 H30            3.8167     2.2331    -0.1873 H       
@<TRIPOS>BOND
   1    1    2 ar
   2    1    6 ar
   3    1   20 1
   4    2    3 ar
   5    2   17 1
   6    3    4 ar
   7    3    7 1
   8    4    5 ar
   9    4   18 1
  10    5    6 ar
  11    5   19 1
  12    6   21 1
  13    7    8 1
  14    7   22 1
  15    8    9 ar
  16    8   13 ar
  17    9   10 ar
  18    9   23 1
  19   10   11 ar
  20   10   24 1
  21   11   12 ar
  22   11   25 1
  23   12   13 ar
  24   12   26 1
  25   13   14 1
  26   14   15 2
  27   14   16 1
  28   16   27 1
  29   19   28 1
  30   19   29 1
  31   19   30 1

#	End of record

