#	Name: ASD01810741
#	Creating user name:	WinNT
#	Creation time:	15. 06. 2019 19:25

#	Modifying user name:	WinNT
#	Modification time:	15. 06. 2019 19:25

#	Program:	/corina/corina34_cracker 3.40 0067  02.08.2006

@<TRIPOS>MOLECULE
ASD01810741
  36   37    0    0    0
SMALL
NO_CHARGES


@<TRIPOS>ATOM
   1 N1             0.3628     0.9373     1.3888 N.2     
   2 N2             0.2937    -0.3373     0.8274 N.am    
   3 C3             1.4256    -0.6083     0.1469 C.2     
   4 C4             2.2784     0.5792     0.2841 C.2     
   5 C5             1.4935     1.5174     1.1064 C.2     
   6 O6             1.6883    -1.6333    -0.4599 O.2     
   7 C7            -0.7944    -1.2104     0.9530 C.ar    
   8 C8            -1.2685    -1.5568     2.2141 C.ar    
   9 C9            -2.3428    -2.4190     2.3334 C.ar    
  10 C10           -2.9448    -2.9361     1.2006 C.ar    
  11 C11           -2.4749    -2.5936    -0.0536 C.ar    
  12 C12           -1.4057    -1.7277    -0.1807 C.ar    
  13 F13           -0.6800    -1.0518     3.3204 F       
  14 O14            1.8790     2.7593     1.4972 O.3     
  15 C15            0.9569     3.5034     2.2961 C.3     
  16 C16            1.5616     4.8670     2.6364 C.3     
  17 C17            3.5419     0.7742    -0.2423 C.2     
  18 N18            4.1420     1.9767    -0.1276 N.pl3   
  19 C19            3.3691     3.2038    -0.3345 C.3     
  20 C20            5.5669     2.0556     0.2038 C.3     
  21 H21           -2.7118    -2.6891     3.3118 H       
  22 H22           -3.7838    -3.6095     1.2962 H       
  23 H23           -2.9473    -3.0001    -0.9357 H       
  24 H24           -1.0429    -1.4573    -1.1613 H       
  25 H25            0.0288     3.6455     1.7424 H       
  26 H26            0.7508     2.9574     3.2167 H       
  27 H27            0.8583     5.4345     3.2457 H       
  28 H28            2.4897     4.7249     3.1900 H       
  29 H29            1.7678     5.4130     1.7158 H       
  30 H30            4.0483    -0.0363    -0.7453 H       
  31 H31            2.3171     2.9522    -0.4693 H       
  32 H32            3.4789     3.8532     0.5341 H       
  33 H33            3.7361     3.7191    -1.2221 H       
  34 H34            6.1541     2.0538    -0.7145 H       
  35 H35            5.7608     2.9743     0.7573 H       
  36 H36            5.8458     1.1973     0.8151 H       
@<TRIPOS>BOND
   1    1    2 1
   2    1    5 2
   3    2    3 am
   4    2    7 1
   5    3    4 1
   6    3    6 2
   7    4    5 1
   8    4   17 2
   9    5   14 1
  10    7    8 ar
  11    7   12 ar
  12    8    9 ar
  13    8   13 1
  14    9   10 ar
  15    9   21 1
  16   10   11 ar
  17   10   22 1
  18   11   12 ar
  19   11   23 1
  20   12   24 1
  21   14   15 1
  22   15   16 1
  23   15   25 1
  24   15   26 1
  25   16   27 1
  26   16   28 1
  27   16   29 1
  28   17   18 1
  29   17   30 1
  30   18   19 1
  31   18   20 1
  32   19   31 1
  33   19   32 1
  34   19   33 1
  35   20   34 1
  36   20   35 1
  37   20   36 1

#	End of record

