#	Name: ASD00170153
#	Creating user name:	WinNT
#	Creation time:	15. 06. 2019 18:31

#	Modifying user name:	WinNT
#	Modification time:	15. 06. 2019 18:31

#	Program:	/corina/corina34_cracker 3.40 0067  02.08.2006

@<TRIPOS>MOLECULE
ASD00170153
  29   31    0    0    0
SMALL
NO_CHARGES


@<TRIPOS>ATOM
   1 C1             5.1020    -2.8363    -0.9478 C.2     
   2 C2             3.8944    -2.3412    -1.1697 C.2     
   3 C3             3.0101    -2.4621    -0.0297 C.2     
   4 C4             3.6136    -3.0683     1.0478 C.2     
   5 S5             5.2253    -3.4822     0.6787 S.3     
   6 N6             2.9992    -3.3077     2.2601 N.pl3   
   7 C7             1.6254    -1.9909    -0.0242 C.2     
   8 C8             0.5141    -2.9604    -0.1309 C.ar    
   9 O9             1.3878    -0.8001     0.0684 O.2     
  10 C10           -0.8142    -2.5152    -0.0100 C.ar    
  11 C11           -1.8514    -3.3859    -0.1039 C.ar    
  12 C12           -1.6049    -4.7530    -0.3253 C.ar    
  13 C13           -0.2695    -5.2145    -0.4495 C.ar    
  14 C14            0.7893    -4.2994    -0.3549 C.ar    
  15 C15           -2.6618    -5.6731    -0.4254 C.ar    
  16 C16           -2.3922    -6.9902    -0.6396 C.ar    
  17 C17           -1.0801    -7.4440    -0.7613 C.ar    
  18 C18           -0.0302    -6.5829    -0.6704 C.ar    
  19 H19            5.9026    -2.8456    -1.6726 H       
  20 H20            3.5988    -1.8922    -2.1064 H       
  21 H21            2.0761    -3.0426     2.3968 H       
  22 H22            3.4903    -3.7412     2.9756 H       
  23 H23           -1.0117    -1.4671     0.1600 H       
  24 H24           -2.8662    -3.0289    -0.0082 H       
  25 H25            1.8109    -4.6372    -0.4476 H       
  26 H26           -3.6840    -5.3369    -0.3326 H       
  27 H27           -3.2075    -7.6943    -0.7160 H       
  28 H28           -0.8938    -8.4943    -0.9306 H       
  29 H29            0.9815    -6.9484    -0.7670 H       
@<TRIPOS>BOND
   1    1    2 2
   2    1    5 1
   3    1   19 1
   4    2    3 1
   5    2   20 1
   6    3    4 2
   7    3    7 1
   8    4    5 1
   9    4    6 1
  10    6   21 1
  11    6   22 1
  12    7    8 1
  13    7    9 2
  14    8   10 ar
  15    8   14 ar
  16   10   11 ar
  17   10   23 1
  18   11   12 ar
  19   11   24 1
  20   12   13 ar
  21   12   15 ar
  22   13   14 ar
  23   13   18 ar
  24   14   25 1
  25   15   16 ar
  26   15   26 1
  27   16   17 ar
  28   16   27 1
  29   17   18 ar
  30   17   28 1
  31   18   29 1

#	End of record

