#	Name: ASD01148790
#	Creating user name:	WinNT
#	Creation time:	15. 06. 2019 19:03

#	Modifying user name:	WinNT
#	Modification time:	15. 06. 2019 19:03

#	Program:	/corina/corina34_cracker 3.40 0067  02.08.2006

@<TRIPOS>MOLECULE
ASD01148790
  54   57    0    0    0
SMALL
NO_CHARGES


@<TRIPOS>ATOM
   1 N1            -0.0159     1.3156    -0.2125 N.pl3   
   2 C2             0.0739    -0.0313    -0.3080 C.2     
   3 C3             1.3597    -0.4166     0.0056 C.2     
   4 C4             2.0973     0.8189     0.3151 C.2     
   5 C5             1.1935     1.8507     0.1623 C.2     
   6 C6             1.8884    -1.7877     0.0272 C.2     
   7 O7             2.3814    -2.2649    -0.9763 O.2     
   8 O8             1.8268    -2.5161     1.1599 O.3     
   9 C9            -1.1754     2.0596    -0.4657 C.ar    
  10 C10           -2.2669     1.9586     0.3868 C.ar    
  11 C11           -3.4085     2.6938     0.1347 C.ar    
  12 C12           -3.4654     3.5299    -0.9652 C.ar    
  13 C13           -2.3802     3.6327    -1.8160 C.ar    
  14 C14           -1.2337     2.9041    -1.5664 C.ar    
  15 S15           -4.9240     4.4658    -1.2836 S.o2    
  16 O16           -4.9166     4.7597    -2.6739 O.2     
  17 O17           -5.9892     3.7802    -0.6398 O.2     
  18 N18           -4.7580     5.9144    -0.4986 N.am    
  19 C19           -1.0492    -0.9591    -0.6939 C.3     
  20 O20            5.6572     1.4175     0.7178 O.3     
  21 C21            4.5207     1.5340     0.0144 C.2     
  22 C22            3.5206     0.9319     0.7110 C.2     
  23 C23            4.1426     0.4176     1.9370 C.2     
  24 C24            5.4412     0.7542     1.8638 C.2     
  25 C25            1.4776     3.2850     0.3657 C.ar    
  26 C26            0.7131     4.0306     1.2661 C.ar    
  27 C27            0.9839     5.3701     1.4519 C.ar    
  28 C28            2.0109     5.9761     0.7478 C.ar    
  29 C29            2.7723     5.2426    -0.1467 C.ar    
  30 C30            2.5158     3.9009    -0.3370 C.ar    
  31 Cl31           2.3450     7.6628     0.9870 Cl      
  32 C32            2.3683    -3.8624     1.1081 C.3     
  33 C33            2.2103    -4.5286     2.4763 C.3     
  34 H34           -2.2232     1.3055     1.2458 H       
  35 H35           -4.2579     2.6154     0.7972 H       
  36 H36           -2.4278     4.2863    -2.6745 H       
  37 H37           -0.3848     2.9882    -2.2288 H       
  38 H38           -3.9554     6.0993     0.0137 H       
  39 H39           -5.4635     6.5781    -0.5510 H       
  40 H40           -1.0529    -1.0949    -1.7754 H       
  41 H41           -0.9070    -1.9239    -0.2071 H       
  42 H42           -2.0000    -0.5295    -0.3784 H       
  43 H43            4.4177     2.0232    -0.9429 H       
  44 H44            3.6551    -0.1212     2.7360 H       
  45 H45            6.1906     0.5273     2.6077 H       
  46 H46           -0.0886     3.5593     1.8152 H       
  47 H47            0.3935     5.9477     2.1477 H       
  48 H48            3.5714     5.7212    -0.6932 H       
  49 H49            3.1131     3.3289    -1.0315 H       
  50 H50            1.8304    -4.4417     0.3576 H       
  51 H51            3.4251    -3.8190     0.8449 H       
  52 H52            2.7482    -3.9493     3.2268 H       
  53 H53            1.1535    -4.5719     2.7395 H       
  54 H54            2.6168    -5.5392     2.4374 H       
@<TRIPOS>BOND
   1    1    2 1
   2    1    5 1
   3    1    9 1
   4    2    3 2
   5    2   19 1
   6    3    4 1
   7    3    6 1
   8    4    5 2
   9    4   22 1
  10    5   25 1
  11    6    7 2
  12    6    8 1
  13    8   32 1
  14    9   10 ar
  15    9   14 ar
  16   10   11 ar
  17   10   34 1
  18   11   12 ar
  19   11   35 1
  20   12   13 ar
  21   12   15 1
  22   13   14 ar
  23   13   36 1
  24   14   37 1
  25   15   16 2
  26   15   17 2
  27   15   18 am
  28   18   38 1
  29   18   39 1
  30   19   40 1
  31   19   41 1
  32   19   42 1
  33   20   21 1
  34   20   24 1
  35   21   22 2
  36   21   43 1
  37   22   23 1
  38   23   24 2
  39   23   44 1
  40   24   45 1
  41   25   26 ar
  42   25   30 ar
  43   26   27 ar
  44   26   46 1
  45   27   28 ar
  46   27   47 1
  47   28   29 ar
  48   28   31 1
  49   29   30 ar
  50   29   48 1
  51   30   49 1
  52   32   33 1
  53   32   50 1
  54   32   51 1
  55   33   52 1
  56   33   53 1
  57   33   54 1

#	End of record

