#	Name: ASD01411136
#	Creating user name:	WinNT
#	Creation time:	15. 06. 2019 19:19

#	Modifying user name:	WinNT
#	Modification time:	15. 06. 2019 19:19

#	Program:	/corina/corina34_cracker 3.40 0067  02.08.2006

@<TRIPOS>MOLECULE
ASD01411136
  95   99    0    0    0
SMALL
NO_CHARGES


@<TRIPOS>ATOM
   1 C1            -0.4515     2.2806    -0.3983 C.ar    
   2 C2            -0.3957     0.9606    -0.8389 C.ar    
   3 C3            -1.4872     0.1263    -0.6837 C.ar    
   4 C4            -2.6464     0.6004    -0.0876 C.ar    
   5 C5            -2.7080     1.9300     0.3584 C.ar    
   6 C6            -1.5971     2.7646     0.2028 C.ar    
   7 O7             0.6273     3.0939    -0.5552 O.3     
   8 C8             0.8129     3.6801    -1.7656 C.ar    
   9 N9            -3.7471    -0.2408     0.0679 N.am    
  10 C10           -3.9443    -0.8837     1.2359 C.2     
  11 C11           -3.0434    -0.6043     2.4113 C.3     
  12 O12           -4.8468    -1.6870     1.3412 O.2     
  13 C13           -3.7745    -0.9544     3.7088 C.3     
  14 C14           -1.7757    -1.4530     2.2952 C.3     
  15 C15           -0.8610    -1.1693     3.4884 C.3     
  16 C16           -1.5921    -1.5195     4.7860 C.3     
  17 C17           -2.8599    -0.6708     4.9021 C.3     
  18 C18           -0.6775    -1.2358     5.9793 C.3     
  19 N19           -0.1028     3.5356    -2.7087 N.ar    
  20 C20           -4.6894    -0.4261    -1.0384 C.3     
  21 C21           -4.5779     0.7535    -2.0063 C.3     
  22 C22            1.9592     4.4291    -1.9966 C.ar    
  23 C23            2.1393     5.0232    -3.2332 C.ar    
  24 C24            1.1560     4.8448    -4.2043 C.ar    
  25 C25            0.0346     4.0871    -3.8992 C.ar    
  26 N26            1.2954     5.4269    -5.4696 N.3     
  27 F27            0.7303     0.4933    -1.4211 F       
  28 C28           -4.3597    -1.7248    -1.7771 C.3     
  29 O29           -5.0138     1.9478    -1.3539 O.3     
  30 O30           -4.5555    -2.8351    -0.8990 O.3     
  31 C31           -4.9494     3.1155    -2.1752 C.3     
  32 C32           -4.2735    -4.1034    -1.4939 C.3     
  33 C33            0.1457     5.1073    -6.3255 C.3     
  34 C34            0.3986     5.6347    -7.7396 C.3     
  35 C35            0.6114     7.1500    -7.6836 C.3     
  36 C36            1.7835     7.4587    -6.7479 C.3     
  37 C37            1.4904     6.8784    -5.3625 C.3     
  38 N38            0.9125     7.6537    -9.0303 N.3     
  39 C39            1.0058     9.1197    -9.0354 C.3     
  40 C40            2.1418     7.0460    -9.5569 C.3     
  41 C41            1.3156     9.8032   -10.3688 C.3     
  42 C42           -0.0896     9.8947    -9.7704 C.3     
  43 C43            2.9941     4.5933    -0.9135 C.3     
  44 F44            4.0452     5.3847    -1.3891 F       
  45 F45            2.4115     5.2109     0.1984 F       
  46 F46            3.4863     3.3368    -0.5445 F       
  47 C47           -3.9347     2.4416     0.9924 C.2     
  48 O48           -4.9267     1.7420     1.0489 O.2     
  49 O49           -3.9572     3.6858     1.5101 O.3     
  50 H50           -1.4373    -0.8963    -1.0276 H       
  51 H51           -1.6378     3.7886     0.5437 H       
  52 H52           -2.7741     0.4519     2.4196 H       
  53 H53           -4.6777    -0.3498     3.7915 H       
  54 H54           -4.0439    -2.0106     3.7005 H       
  55 H55           -2.0450    -2.5091     2.2868 H       
  56 H56           -1.2548    -1.2035     1.3708 H       
  57 H57            0.0421    -1.7739     3.4057 H       
  58 H58           -0.5917    -0.1131     3.4968 H       
  59 H59           -1.8615    -2.5756     4.7777 H       
  60 H60           -2.5905     0.3854     4.9104 H       
  61 H61           -3.3807    -0.9202     5.8265 H       
  62 H62           -0.4082    -0.1796     5.9876 H       
  63 H63           -1.1984    -1.4853     6.9037 H       
  64 H64            0.2257    -1.8404     5.8966 H       
  65 H65           -5.7049    -0.4792    -0.6457 H       
  66 H66           -3.5406     0.8690    -2.3204 H       
  67 H67           -5.2034     0.5675    -2.8794 H       
  68 H68            3.0209     5.6115    -3.4407 H       
  69 H69           -0.7322     3.9434    -4.6461 H       
  70 H70           -5.0141    -1.8266    -2.6428 H       
  71 H71           -3.3212    -1.7014    -2.1073 H       
  72 H72           -3.9198     3.2799    -2.4928 H       
  73 H73           -5.5826     2.9784    -3.0518 H       
  74 H74           -5.2968     3.9786    -1.6075 H       
  75 H75           -3.2332    -4.1293    -1.8183 H       
  76 H76           -4.4461    -4.8938    -0.7635 H       
  77 H77           -4.9261    -4.2545    -2.3538 H       
  78 H78            0.0080     4.0266    -6.3601 H       
  79 H79           -0.7510     5.5747    -5.9185 H       
  80 H80            1.2874     5.1575    -8.1525 H       
  81 H81           -0.4615     5.4111    -8.3707 H       
  82 H82           -0.2915     7.6309    -7.3072 H       
  83 H83            2.6941     7.0101    -7.1452 H       
  84 H84            1.9127     8.5382    -6.6704 H       
  85 H85            0.5874     7.3375    -4.9601 H       
  86 H86            2.3294     7.0841    -4.6977 H       
  87 H87            1.4200     9.5675    -8.1321 H       
  88 H88            2.0195     5.9641    -9.6076 H       
  89 H89            2.3414     7.4363   -10.5549 H       
  90 H90            2.9768     7.2868    -8.8990 H       
  91 H91            1.9332    10.7009   -10.3426 H       
  92 H92            1.4501     9.1650   -11.2421 H       
  93 H93           -0.8796     9.3169   -10.2501 H       
  94 H94           -0.3964    10.8527    -9.3506 H       
  95 H95           -4.7849     3.9775     1.9160 H       
@<TRIPOS>BOND
   1    1    2 ar
   2    1    7 1
   3    1    6 ar
   4    2    3 ar
   5    2   27 1
   6    3    4 ar
   7    3   50 1
   8    4    5 ar
   9    4    9 1
  10    5    6 ar
  11    5   47 1
  12    6   51 1
  13    7    8 1
  14    8   22 ar
  15    8   19 ar
  16    9   10 am
  17    9   20 1
  18   10   11 1
  19   10   12 2
  20   11   13 1
  21   11   14 1
  22   11   52 1
  23   13   17 1
  24   13   53 1
  25   13   54 1
  26   14   15 1
  27   14   55 1
  28   14   56 1
  29   15   16 1
  30   15   57 1
  31   15   58 1
  32   16   17 1
  33   16   18 1
  34   16   59 1
  35   17   60 1
  36   17   61 1
  37   18   62 1
  38   18   63 1
  39   18   64 1
  40   19   25 ar
  41   20   21 1
  42   20   28 1
  43   20   65 1
  44   21   29 1
  45   21   66 1
  46   21   67 1
  47   22   23 ar
  48   22   43 1
  49   23   24 ar
  50   23   68 1
  51   24   25 ar
  52   24   26 1
  53   25   69 1
  54   26   33 1
  55   26   37 1
  56   28   30 1
  57   28   70 1
  58   28   71 1
  59   29   31 1
  60   30   32 1
  61   31   72 1
  62   31   73 1
  63   31   74 1
  64   32   75 1
  65   32   76 1
  66   32   77 1
  67   33   34 1
  68   33   78 1
  69   33   79 1
  70   34   35 1
  71   34   80 1
  72   34   81 1
  73   35   36 1
  74   35   38 1
  75   35   82 1
  76   36   37 1
  77   36   83 1
  78   36   84 1
  79   37   85 1
  80   37   86 1
  81   38   39 1
  82   38   40 1
  83   39   41 1
  84   39   42 1
  85   39   87 1
  86   40   88 1
  87   40   89 1
  88   40   90 1
  89   41   42 1
  90   41   91 1
  91   41   92 1
  92   42   93 1
  93   42   94 1
  94   43   44 1
  95   43   45 1
  96   43   46 1
  97   47   48 2
  98   47   49 1
  99   49   95 1

#	End of record

