#	Name: ASD01152501
#	Creating user name:	WinNT
#	Creation time:	15. 06. 2019 19:05

#	Modifying user name:	WinNT
#	Modification time:	15. 06. 2019 19:05

#	Program:	/corina/corina34_cracker 3.40 0067  02.08.2006

@<TRIPOS>MOLECULE
ASD01152501
  46   48    0    0    0
SMALL
NO_CHARGES


@<TRIPOS>ATOM
   1 C1             0.1107     1.1569    -0.6966 C.2     
   2 N2             0.0185    -0.1438    -0.6179 N.2     
   3 N3            -1.1208    -0.7663    -0.1082 N.am    
   4 C4            -2.2617    -0.0995     0.1332 C.2     
   5 C5            -2.3931     1.3532    -0.2596 C.3     
   6 C6            -1.0091     1.9734    -0.2041 C.2     
   7 C7            -2.9569     1.4574    -1.6781 C.3     
   8 O8            -0.8366     3.0970     0.2213 O.2     
   9 C9            -1.0736    -2.1392     0.1619 C.ar    
  10 O10           -3.1905    -0.6664     0.6685 O.2     
  11 C11           -3.2001     2.9055    -2.0168 C.ar    
  12 C12           -0.0101    -2.6697     0.8787 C.ar    
  13 C13           -2.0943    -2.9704    -0.2825 C.ar    
  14 C14           -2.0494    -4.3253    -0.0164 C.ar    
  15 C15           -0.9885    -4.8585     0.6937 C.ar    
  16 C16            0.0336    -4.0301     1.1451 C.ar    
  17 C17           -2.1996     3.6541    -2.6078 C.ar    
  18 C18           -2.4216     4.9826    -2.9195 C.ar    
  19 C19           -3.6453     5.5633    -2.6400 C.ar    
  20 C20           -4.6477     4.8133    -2.0479 C.ar    
  21 C21           -4.4256     3.4830    -1.7415 C.ar    
  22 F22           -0.9475    -6.1838     0.9529 F       
  23 Cl23          -3.9244     7.2316    -3.0306 Cl      
  24 Cl24          -6.1841     5.5409    -1.6959 Cl      
  25 N25            1.1054    -4.5690     1.8677 N.am    
  26 C26            1.7698    -3.8055     2.7576 C.2     
  27 O27            1.5003    -2.6279     2.8670 O.2     
  28 C28            2.8477    -4.4147     3.6167 C.3     
  29 O29            1.2204     1.7434    -1.2173 O.3     
  30 C30            2.2629     0.8753    -1.6664 C.3     
  31 H31           -3.0535     1.8663     0.4395 H       
  32 H32           -2.2432     1.0339    -2.3847 H       
  33 H33           -3.8963     0.9077    -1.7370 H       
  34 H34            0.7823    -2.0243     1.2281 H       
  35 H35           -2.9241    -2.5568    -0.8365 H       
  36 H36           -2.8440    -4.9694    -0.3629 H       
  37 H37           -1.2438     3.2010    -2.8259 H       
  38 H38           -1.6393     5.5670    -3.3809 H       
  39 H39           -5.2069     2.8975    -1.2798 H       
  40 H40            1.3695    -5.4918     1.7277 H       
  41 H41            3.8076    -4.3348     3.1065 H       
  42 H42            2.8967    -3.8851     4.5681 H       
  43 H43            2.6183    -5.4650     3.7969 H       
  44 H44            3.0879     1.4704    -2.0580 H       
  45 H45            2.6160     0.2695    -0.8318 H       
  46 H46            1.8800     0.2237    -2.4519 H       
@<TRIPOS>BOND
   1    1    2 2
   2    1   29 1
   3    1    6 1
   4    2    3 1
   5    3    4 am
   6    3    9 1
   7    4    5 1
   8    4   10 2
   9    5    6 1
  10    5    7 1
  11    5   31 1
  12    6    8 2
  13    7   11 1
  14    7   32 1
  15    7   33 1
  16    9   12 ar
  17    9   13 ar
  18   11   17 ar
  19   11   21 ar
  20   12   16 ar
  21   12   34 1
  22   13   14 ar
  23   13   35 1
  24   14   15 ar
  25   14   36 1
  26   15   16 ar
  27   15   22 1
  28   16   25 1
  29   17   18 ar
  30   17   37 1
  31   18   19 ar
  32   18   38 1
  33   19   20 ar
  34   19   23 1
  35   20   21 ar
  36   20   24 1
  37   21   39 1
  38   25   26 am
  39   25   40 1
  40   26   27 2
  41   26   28 1
  42   28   41 1
  43   28   42 1
  44   28   43 1
  45   29   30 1
  46   30   44 1
  47   30   45 1
  48   30   46 1

#	End of record

