#	Name: ASD01903113
#	Creating user name:	WinNT
#	Creation time:	15. 06. 2019 19:54

#	Modifying user name:	WinNT
#	Modification time:	15. 06. 2019 19:54

#	Program:	/corina/corina34_cracker 3.40 0067  02.08.2006

@<TRIPOS>MOLECULE
ASD01903113
  48   51    0    0    0
SMALL
NO_CHARGES


@<TRIPOS>ATOM
   1 C1            -0.0646     1.3779     0.3341 C.ar    
   2 C2            -0.0943    -0.0073     0.2308 C.ar    
   3 C3            -1.2884    -0.6854     0.3818 C.ar    
   4 C4            -2.4585     0.0178     0.6367 C.ar    
   5 C5            -2.4278     1.4029     0.7398 C.ar    
   6 C6            -1.2338     2.0799     0.5942 C.ar    
   7 N7            -3.6683    -0.6686     0.7892 N.am    
   8 C8            -3.6879    -1.8736     1.3925 C.2     
   9 C9            -4.9790    -2.5543     1.6453 C.ar    
  10 N10           -6.1132    -1.9726     1.2753 N.ar    
  11 C11           -7.2803    -2.5432     1.4808 C.ar    
  12 C12           -7.3686    -3.7815     2.0961 C.ar    
  13 C13           -6.2083    -4.4246     2.4986 C.ar    
  14 C14           -4.9923    -3.8026     2.2642 C.ar    
  15 O15           -2.6464    -2.4017     1.7292 O.2     
  16 Cl16           1.3687    -0.8856    -0.0884 Cl      
  17 N17            1.1484     2.0671     0.1812 N.am    
  18 C18            1.9631     2.3363     1.2088 C.2     
  19 C19            3.1751     3.0860     0.7001 C.3     
  20 C20            2.9167     3.2045    -0.8158 C.3     
  21 C21            1.5887     2.5044    -1.0050 C.2     
  22 O22            1.7617     2.0287     2.3640 O.2     
  23 O23            1.0113     2.3676    -2.0622 O.2     
  24 C24            3.2594     4.4722     1.3419 C.3     
  25 C25            4.4338     2.3004     0.9637 C.ar    
  26 C26            4.6007     1.0512     0.3957 C.ar    
  27 C27            5.7554     0.3307     0.6376 C.ar    
  28 C28            6.7433     0.8594     1.4471 C.ar    
  29 C29            6.5768     2.1090     2.0144 C.ar    
  30 C30            5.4240     2.8314     1.7690 C.ar    
  31 H31           -1.3120    -1.7622     0.3013 H       
  32 H32           -3.3378     1.9498     0.9380 H       
  33 H33           -1.2104     3.1566     0.6744 H       
  34 H34           -4.4927    -0.2771     0.4608 H       
  35 H35           -8.1823    -2.0394     1.1660 H       
  36 H36           -8.3319    -4.2411     2.2608 H       
  37 H37           -6.2508    -5.3904     2.9802 H       
  38 H38           -4.0686    -4.2750     2.5642 H       
  39 H39            2.8483     4.2511    -1.1126 H       
  40 H40            3.6986     2.6953    -1.3792 H       
  41 H41            3.3637     4.3669     2.4218 H       
  42 H42            4.1229     5.0051     0.9438 H       
  43 H43            2.3517     5.0324     1.1175 H       
  44 H44            3.8289     0.6381    -0.2368 H       
  45 H45            5.8854    -0.6456     0.1944 H       
  46 H46            7.6450     0.2961     1.6366 H       
  47 H47            7.3484     2.5219     2.6471 H       
  48 H48            5.2939     3.8076     2.2122 H       
@<TRIPOS>BOND
   1    1    2 ar
   2    1   17 1
   3    1    6 ar
   4    2    3 ar
   5    2   16 1
   6    3    4 ar
   7    3   31 1
   8    4    5 ar
   9    4    7 1
  10    5    6 ar
  11    5   32 1
  12    6   33 1
  13    7    8 am
  14    7   34 1
  15    8    9 1
  16    8   15 2
  17    9   10 ar
  18    9   14 ar
  19   10   11 ar
  20   11   12 ar
  21   11   35 1
  22   12   13 ar
  23   12   36 1
  24   13   14 ar
  25   13   37 1
  26   14   38 1
  27   17   18 am
  28   17   21 am
  29   18   19 1
  30   18   22 2
  31   19   20 1
  32   19   24 1
  33   19   25 1
  34   20   21 1
  35   20   39 1
  36   20   40 1
  37   21   23 2
  38   24   41 1
  39   24   42 1
  40   24   43 1
  41   25   26 ar
  42   25   30 ar
  43   26   27 ar
  44   26   44 1
  45   27   28 ar
  46   27   45 1
  47   28   29 ar
  48   28   46 1
  49   29   30 ar
  50   29   47 1
  51   30   48 1

#	End of record

