#	Name: ASD03080189
#	Creating user name:	WinNT
#	Creation time:	15. 06. 2019 20:26

#	Modifying user name:	WinNT
#	Modification time:	15. 06. 2019 20:26

#	Program:	/corina/corina34_cracker 3.40 0067  02.08.2006

@<TRIPOS>MOLECULE
ASD03080189
  24   25    0    0    0
SMALL
NO_CHARGES


@<TRIPOS>ATOM
   1 C1            -0.0167     1.3809     0.0096 C.ar    
   2 C2             0.0021    -0.0041     0.0020 C.ar    
   3 C3             1.2173    -0.6643    -0.0131 C.ar    
   4 C4             2.3890     0.1018    -0.0202 C.ar    
   5 C5             2.2855     1.4926    -0.0117 C.ar    
   6 N6             1.1048     2.0768     0.0027 N.ar    
   7 Cl7           -1.5394     2.2145     0.0213 Cl      
   8 C8             3.7142    -0.5527    -0.0358 C.2     
   9 C9             4.8169     0.1832    -0.0424 C.2     
  10 N10            8.1916    -0.0646    -0.3706 N.3     
  11 C11            7.0303    -0.1284    -1.2776 C.3     
  12 C12            6.1680    -0.4841    -0.0583 C.3     
  13 C13            7.2539     0.2767     0.7154 C.3     
  14 H14           -0.9223    -0.5625     0.0082 H       
  15 H15            1.2612    -1.7433    -0.0190 H       
  16 H16            3.1812     2.0960    -0.0170 H       
  17 H17            3.7842    -1.6304    -0.0419 H       
  18 H18            4.7469     1.2609    -0.0363 H       
  19 H19            8.5907    -0.9805    -0.2293 H       
  20 H20            6.7751     0.8325    -1.7245 H       
  21 H21            7.0964    -0.9313    -2.0118 H       
  22 H22            6.1238    -1.5508     0.1611 H       
  23 H23            7.5095    -0.1829     1.6701 H       
  24 H24            7.0584     1.3456     0.8003 H       
@<TRIPOS>BOND
   1    1    2 ar
   2    1    6 ar
   3    1    7 1
   4    2    3 ar
   5    2   14 1
   6    3    4 ar
   7    3   15 1
   8    4    5 ar
   9    4    8 1
  10    5    6 ar
  11    5   16 1
  12    8    9 2
  13    8   17 1
  14    9   12 1
  15    9   18 1
  16   10   11 1
  17   10   13 1
  18   10   19 1
  19   11   12 1
  20   11   20 1
  21   11   21 1
  22   12   13 1
  23   12   22 1
  24   13   23 1
  25   13   24 1

#	End of record

