#	Name: ASD05740060
#	Creating user name:	WinNT
#	Creation time:	15. 06. 2019 21:02

#	Modifying user name:	WinNT
#	Modification time:	15. 06. 2019 21:02

#	Program:	/corina/corina34_cracker 3.40 0067  02.08.2006

@<TRIPOS>MOLECULE
ASD05740060
  48   51    0    0    0
SMALL
NO_CHARGES


@<TRIPOS>ATOM
   1 S1            -0.0462     1.7705    -0.1860 S.3     
   2 N2             2.1124    -4.2144     0.4953 N.ar    
   3 C3             0.9518    -4.8437     0.3684 C.ar    
   4 C4             2.2185    -2.9071     0.3741 C.ar    
   5 C5             1.0870    -2.1350     0.1020 C.ar    
   6 C6            -0.1628    -2.7726    -0.0434 C.ar    
   7 C7            -0.2190    -4.1513     0.0962 C.ar    
   8 C8             1.1667    -0.6786    -0.0327 C.2     
   9 C9            -0.0150     0.0159    -0.0281 C.2     
  10 C10           -1.2553    -0.7603     0.1142 C.2     
  11 O11           -1.2664    -2.0429    -0.3153 O.3     
  12 C12           -0.8413     2.0146    -1.7393 C.2     
  13 C13           -1.1766     0.9645    -2.5834 C.2     
  14 O14           -2.2495    -0.2603     0.6077 O.2     
  15 O15            0.9089    -6.1923     0.5072 O.3     
  16 C16            2.0687    -6.8419     0.7725 C.2     
  17 C17           -1.1770     3.2320    -2.1997 C.2     
  18 S18           -1.9538     3.0735    -3.7695 S.3     
  19 C19           -1.7731     1.3251    -3.7198 C.2     
  20 N20           -0.9446     4.4410    -1.5314 N.am    
  21 S21           -1.4138     5.8716    -2.2210 S.o2    
  22 O22           -1.0012     6.8617    -1.2890 O.2     
  23 O23           -0.8660     5.8253    -3.5313 O.2     
  24 N24            3.2234    -6.2718     0.9106 N.2     
  25 S25            2.2186    -8.5322     0.9808 S.3     
  26 C26            3.9503    -8.3556     1.2527 C.2     
  27 C27            4.2520    -7.0588     1.1677 C.2     
  28 C28            2.4916     0.0262    -0.1700 C.3     
  29 C29            3.0709     0.2985     1.2196 C.3     
  30 C30           -3.2240     5.7716    -2.2839 C.3     
  31 C31           -3.7840     7.0509    -2.9089 C.3     
  32 H32            3.1819    -2.4316     0.4849 H       
  33 H33           -1.1572    -4.6764    -0.0056 H       
  34 H34           -0.9695    -0.0667    -2.3381 H       
  35 H35           -2.1012     0.6449    -4.4918 H       
  36 H36           -0.5089     4.4401    -0.6648 H       
  37 H37            4.6455    -9.1566     1.4563 H       
  38 H38            5.2564    -6.6834     1.2965 H       
  39 H39            3.1807    -0.6022    -0.7342 H       
  40 H40            2.3481     0.9705    -0.6952 H       
  41 H41            3.9844     0.8854     1.1239 H       
  42 H42            2.3441     0.8519     1.8143 H       
  43 H43            3.2970    -0.6480     1.7108 H       
  44 H44           -3.5197     4.9130    -2.8868 H       
  45 H45           -3.6169     5.6587    -1.2734 H       
  46 H46           -4.8717     6.9908    -2.9467 H       
  47 H47           -3.4883     7.9095    -2.3060 H       
  48 H48           -3.3911     7.1638    -3.9193 H       
@<TRIPOS>BOND
   1    1    9 1
   2    1   12 1
   3    2    3 ar
   4    2    4 ar
   5    3   15 1
   6    3    7 ar
   7    4    5 ar
   8    4   32 1
   9    5    6 ar
  10    5    8 1
  11    6    7 ar
  12    6   11 1
  13    7   33 1
  14    8    9 2
  15    8   28 1
  16    9   10 1
  17   10   11 1
  18   10   14 2
  19   12   13 1
  20   12   17 2
  21   13   19 2
  22   13   34 1
  23   15   16 1
  24   16   25 1
  25   16   24 2
  26   17   18 1
  27   17   20 1
  28   18   19 1
  29   19   35 1
  30   20   21 am
  31   20   36 1
  32   21   22 2
  33   21   23 2
  34   21   30 1
  35   24   27 1
  36   25   26 1
  37   26   27 2
  38   26   37 1
  39   27   38 1
  40   28   29 1
  41   28   39 1
  42   28   40 1
  43   29   41 1
  44   29   42 1
  45   29   43 1
  46   30   31 1
  47   30   44 1
  48   30   45 1
  49   31   46 1
  50   31   47 1
  51   31   48 1

#	End of record

