#	Name: ASD04600001
#	Creating user name:	WinNT
#	Creation time:	15. 06. 2019 20:52

#	Modifying user name:	WinNT
#	Modification time:	15. 06. 2019 20:52

#	Program:	/corina/corina34_cracker 3.40 0067  02.08.2006

@<TRIPOS>MOLECULE
ASD04600001
  69   74    0    0    0
SMALL
NO_CHARGES


@<TRIPOS>ATOM
   1 N1            -0.0162     1.3436     0.0094 N.am    
   2 C2             0.0021    -0.0041     0.0020 C.2     
   3 O3             1.0628    -0.5974    -0.0113 O.2     
   4 N4            -1.1558    -0.6938     0.0094 N.am    
   5 C5            -1.1360    -2.1586     0.0013 C.3     
   6 C6            -2.4071    -2.6988     0.6094 C.ar    
   7 C7            -2.9628    -2.5652     1.8643 C.ar    
   8 C8            -4.1659    -3.1818     2.1582 C.ar    
   9 C9            -4.8136    -3.9338     1.1944 C.ar    
  10 C10           -4.2648    -4.0733    -0.0632 C.ar    
  11 C11           -3.0512    -3.4535    -0.3670 C.ar    
  12 C12           -2.2483    -3.4357    -1.6149 C.ar    
  13 C13           -2.4668    -4.0339    -2.8574 C.ar    
  14 C14           -1.5514    -3.8627    -3.8747 C.ar    
  15 C15           -0.4159    -3.0994    -3.6697 C.ar    
  16 C16           -0.1932    -2.5034    -2.4412 C.ar    
  17 C17           -1.1026    -2.6700    -1.4181 C.ar    
  18 C18            1.1417     2.0332     0.0021 C.2     
  19 C19            1.1217     3.5045     0.0102 C.ar    
  20 C20            1.1006     4.2175    -1.1980 C.ar    
  21 C21            1.0820     5.6026    -1.1785 C.ar    
  22 C22            1.0846     6.2822     0.0254 C.ar    
  23 C23            1.1054     5.5897     1.2219 C.ar    
  24 C24            1.1179     4.2044     1.2261 C.ar    
  25 O25            2.2028     1.4397    -0.0112 O.2     
  26 O26            1.1326     3.5273     2.4015 O.3     
  27 C27            1.1276     4.3067     3.5992 C.3     
  28 C28            1.1456     3.3898     4.7951 C.ar    
  29 C29            2.3509     2.9856     5.3380 C.ar    
  30 C30            2.3674     2.1446     6.4350 C.ar    
  31 C31            1.1786     1.7082     6.9893 C.ar    
  32 C32           -0.0266     2.1132     6.4470 C.ar    
  33 C33           -0.0432     2.9577     5.3527 C.ar    
  34 O34            1.0988     3.5532    -2.3806 O.3     
  35 C35            1.0768     4.3454    -3.5697 C.3     
  36 C36            1.0781     3.4416    -4.7756 C.ar    
  37 C37           -0.1183     3.0104    -5.3175 C.ar    
  38 C38           -0.1170     2.1813    -6.4237 C.ar    
  39 C39            1.0806     1.7838    -6.9881 C.ar    
  40 C40            2.2769     2.2157    -6.4467 C.ar    
  41 C41            2.2756     3.0483    -5.3432 C.ar    
  42 H42           -0.8627     1.8171     0.0160 H       
  43 H43           -2.0023    -0.2203     0.0200 H       
  44 H44           -0.2706    -2.5248     0.5537 H       
  45 H45           -2.4588    -1.9785     2.6180 H       
  46 H46           -4.5999    -3.0762     3.1415 H       
  47 H47           -5.7525    -4.4139     1.4279 H       
  48 H48           -4.7736    -4.6615    -0.8125 H       
  49 H49           -3.3519    -4.6305    -3.0217 H       
  50 H50           -1.7218    -4.3260    -4.8353 H       
  51 H51            0.2974    -2.9683    -4.4699 H       
  52 H52            0.6936    -1.9076    -2.2833 H       
  53 H53            1.0657     6.1536    -2.1073 H       
  54 H54            1.0707     7.3621     0.0314 H       
  55 H55            1.1073     6.1307     2.1566 H       
  56 H56            2.0091     4.9475     3.6194 H       
  57 H57            0.2293     4.9234     3.6277 H       
  58 H58            3.2797     3.3265     4.9050 H       
  59 H59            3.3091     1.8281     6.8587 H       
  60 H60            1.1916     1.0505     7.8459 H       
  61 H61           -0.9554     1.7720     6.8798 H       
  62 H62           -0.9849     3.2770     4.9312 H       
  63 H63            0.1780     4.9620    -3.5789 H       
  64 H64            1.9577     4.9868    -3.5954 H       
  65 H65           -1.0539     3.3210    -4.8766 H       
  66 H66           -1.0517     1.8439    -6.8466 H       
  67 H67            1.0816     1.1354    -7.8519 H       
  68 H68            3.2126     1.9048    -6.8875 H       
  69 H69            3.2102     3.3887    -4.9225 H       
@<TRIPOS>BOND
   1    1    2 am
   2    1   18 am
   3    1   42 1
   4    2    3 2
   5    2    4 am
   6    4    5 1
   7    4   43 1
   8    5    6 1
   9    5   17 1
  10    5   44 1
  11    6    7 ar
  12    6   11 ar
  13    7    8 ar
  14    7   45 1
  15    8    9 ar
  16    8   46 1
  17    9   10 ar
  18    9   47 1
  19   10   11 ar
  20   10   48 1
  21   11   12 1
  22   12   13 ar
  23   12   17 ar
  24   13   14 ar
  25   13   49 1
  26   14   15 ar
  27   14   50 1
  28   15   16 ar
  29   15   51 1
  30   16   17 ar
  31   16   52 1
  32   18   19 1
  33   18   25 2
  34   19   20 ar
  35   19   24 ar
  36   20   21 ar
  37   20   34 1
  38   21   22 ar
  39   21   53 1
  40   22   23 ar
  41   22   54 1
  42   23   24 ar
  43   23   55 1
  44   24   26 1
  45   26   27 1
  46   27   28 1
  47   27   56 1
  48   27   57 1
  49   28   29 ar
  50   28   33 ar
  51   29   30 ar
  52   29   58 1
  53   30   31 ar
  54   30   59 1
  55   31   32 ar
  56   31   60 1
  57   32   33 ar
  58   32   61 1
  59   33   62 1
  60   34   35 1
  61   35   36 1
  62   35   63 1
  63   35   64 1
  64   36   37 ar
  65   36   41 ar
  66   37   38 ar
  67   37   65 1
  68   38   39 ar
  69   38   66 1
  70   39   40 ar
  71   39   67 1
  72   40   41 ar
  73   40   68 1
  74   41   69 1

#	End of record

