#	Name: ASD01912051
#	Creating user name:	WinNT
#	Creation time:	15. 06. 2019 19:58

#	Modifying user name:	WinNT
#	Modification time:	15. 06. 2019 19:58

#	Program:	/corina/corina34_cracker 3.40 0067  02.08.2006

@<TRIPOS>MOLECULE
ASD01912051
  47   49    0    0    0
SMALL
NO_CHARGES


@<TRIPOS>ATOM
   1 C1            -0.0205     1.4648    -0.0354 C.3     
   2 N2             0.0021    -0.0041     0.0020 N.3     
   3 C3             0.7140    -0.5468    -1.1634 C.3     
   4 C4             2.1499    -0.0173    -1.1729 C.3     
   5 N5             2.1273     1.4517    -1.2103 N.3     
   6 C6             1.4154     1.9944    -0.0449 C.3     
   7 C7             3.4885     1.9971    -1.2967 C.3     
   8 C8             3.4192     3.4984    -1.5834 C.3     
   9 N9             4.7804     4.0438    -1.6698 N.3     
  10 C10            4.7530     5.4866    -1.9448 C.3     
  11 C11            6.1640     6.0094    -2.0262 C.ar    
  12 C12            6.8264     6.0252    -3.2395 C.ar    
  13 C13            8.1207     6.5047    -3.3141 C.ar    
  14 C14            8.7526     6.9688    -2.1756 C.ar    
  15 C15            8.0900     6.9537    -0.9625 C.ar    
  16 C16            6.7941     6.4783    -0.8887 C.ar    
  17 C17           -1.2936    -0.5232     0.0842 C.ar    
  18 C18           -1.8210    -1.2479    -0.9759 C.ar    
  19 C19           -3.1016    -1.7598    -0.8922 C.ar    
  20 C20           -3.8589    -1.5506     0.2465 C.ar    
  21 C21           -3.3365    -0.8282     1.3053 C.ar    
  22 C22           -2.0540    -0.3196     1.2300 C.ar    
  23 Cl23          -5.4677    -2.1951     0.3474 Cl      
  24 Cl24          -1.3991     0.5865     2.5580 Cl      
  25 H25           -0.5368     1.7978    -0.9358 H       
  26 H26           -0.5419     1.8431     0.8439 H       
  27 H27            0.7281    -1.6352    -1.1064 H       
  28 H28            0.2060    -0.2368    -2.0766 H       
  29 H29            2.6662    -0.3502    -0.2725 H       
  30 H30            2.6712    -0.3955    -2.0522 H       
  31 H31            1.4012     3.0828    -0.1019 H       
  32 H32            1.9233     1.6844     0.8683 H       
  33 H33            4.0070     1.8311    -0.3523 H       
  34 H34            4.0295     1.4982    -2.1008 H       
  35 H35            2.9007     3.6643    -2.5277 H       
  36 H36            2.8782     3.9973    -0.7793 H       
  37 H37            5.3033     3.8457    -0.8299 H       
  38 H38            4.2437     5.6663    -2.8916 H       
  39 H39            4.2213     5.9992    -1.1432 H       
  40 H40            6.3327     5.6627    -4.1290 H       
  41 H41            8.6384     6.5164    -4.2619 H       
  42 H42            9.7641     7.3427    -2.2338 H       
  43 H43            8.5838     7.3160    -0.0730 H       
  44 H44            6.2764     6.4665     0.0591 H       
  45 H45           -1.2308    -1.4111    -1.8656 H       
  46 H46           -3.5120    -2.3236    -1.7169 H       
  47 H47           -3.9302    -0.6659     2.1928 H       
@<TRIPOS>BOND
   1    1    2 1
   2    1    6 1
   3    1   25 1
   4    1   26 1
   5    2    3 1
   6    2   17 1
   7    3    4 1
   8    3   27 1
   9    3   28 1
  10    4    5 1
  11    4   29 1
  12    4   30 1
  13    5    6 1
  14    5    7 1
  15    6   31 1
  16    6   32 1
  17    7    8 1
  18    7   33 1
  19    7   34 1
  20    8    9 1
  21    8   35 1
  22    8   36 1
  23    9   10 1
  24    9   37 1
  25   10   11 1
  26   10   38 1
  27   10   39 1
  28   11   12 ar
  29   11   16 ar
  30   12   13 ar
  31   12   40 1
  32   13   14 ar
  33   13   41 1
  34   14   15 ar
  35   14   42 1
  36   15   16 ar
  37   15   43 1
  38   16   44 1
  39   17   18 ar
  40   17   22 ar
  41   18   19 ar
  42   18   45 1
  43   19   20 ar
  44   19   46 1
  45   20   21 ar
  46   20   23 1
  47   21   22 ar
  48   21   47 1
  49   22   24 1

#	End of record

