#	Name: ASD01881392
#	Creating user name:	WinNT
#	Creation time:	15. 06. 2019 19:42

#	Modifying user name:	WinNT
#	Modification time:	15. 06. 2019 19:42

#	Program:	/corina/corina34_cracker 3.40 0067  02.08.2006

@<TRIPOS>MOLECULE
ASD01881392
  53   56    0    0    0
SMALL
NO_CHARGES


@<TRIPOS>ATOM
   1 O1            -0.0793     1.3319     0.0433 O.3     
   2 C2             0.0150    -0.0940    -0.0399 C.3     
   3 C3             1.0690    -0.5557     0.9749 C.3     
   4 N4             2.3684     0.0059     0.5887 N.3     
   5 C5             2.3019     1.3767     0.3607 C.ar    
   6 C6             1.0952     2.0196     0.0900 C.ar    
   7 C7             3.4841     2.1160     0.4062 C.ar    
   8 C8             3.4658     3.4731     0.1826 C.ar    
   9 C9             2.2595     4.1189    -0.0920 C.ar    
  10 C10            1.0742     3.3832    -0.1368 C.ar    
  11 O11            3.3491     6.5723    -0.3427 O.3     
  12 B12            2.2358     5.6675    -0.3497 Du      
  13 O13            1.0960     6.4876    -0.6442 O.3     
  14 C14            1.5643     7.4190    -1.6421 C.3     
  15 C15            3.0919     7.4764    -1.4377 C.3     
  16 C16            3.5276     8.8963    -1.0703 C.3     
  17 C17            3.8168     7.0049    -2.6999 C.3     
  18 C18            1.2331     6.9078    -3.0456 C.3     
  19 C19            0.9440     8.7992    -1.4160 C.3     
  20 C20            4.0241    -0.1432     3.9977 C.3     
  21 C21            2.9859     0.2604     2.9474 C.3     
  22 C22            3.3973    -0.3124     1.5877 C.3     
  23 C23            3.5411    -1.8326     1.7087 C.3     
  24 C24            4.5579    -2.1553     2.8068 C.3     
  25 O25            4.1307    -1.5677     4.0374 O.3     
  26 H26           -0.9493    -0.5421     0.1999 H       
  27 H27            0.3183    -0.3856    -1.0454 H       
  28 H28            0.7986    -0.2020     1.9698 H       
  29 H29            1.1259    -1.6442     0.9738 H       
  30 H30            4.4195     1.6197     0.6186 H       
  31 H31            4.3849     4.0390     0.2200 H       
  32 H32            0.1390     3.8801    -0.3490 H       
  33 H33            4.5995     8.9078    -0.8727 H       
  34 H34            3.3032     9.5706    -1.8968 H       
  35 H35            2.9905     9.2221    -0.1795 H       
  36 H36            3.4832     5.9993    -2.9562 H       
  37 H37            3.5918     7.6832    -3.5229 H       
  38 H38            4.8917     6.9962    -2.5197 H       
  39 H39            0.1522     6.8181    -3.1539 H       
  40 H40            1.6157     7.6089    -3.7873 H       
  41 H41            1.6955     5.9322    -3.1954 H       
  42 H42            1.2028     9.1549    -0.4187 H       
  43 H43            1.3271     9.4963    -2.1612 H       
  44 H44           -0.1400     8.7297    -1.5069 H       
  45 H45            4.9912     0.2866     3.7366 H       
  46 H46            3.7143     0.2256     4.9755 H       
  47 H47            2.0100    -0.1351     3.2291 H       
  48 H48            2.9350     1.3474     2.8845 H       
  49 H49            4.3491     0.1221     1.2819 H       
  50 H50            2.5765    -2.2704     1.9654 H       
  51 H51            3.8873    -2.2424     0.7599 H       
  52 H52            4.6326    -3.2361     2.9267 H       
  53 H53            5.5320    -1.7519     2.5302 H       
@<TRIPOS>BOND
   1    1    2 1
   2    1    6 1
   3    2    3 1
   4    2   26 1
   5    2   27 1
   6    3    4 1
   7    3   28 1
   8    3   29 1
   9    4    5 1
  10    4   22 1
  11    5    6 ar
  12    5    7 ar
  13    6   10 ar
  14    7    8 ar
  15    7   30 1
  16    8    9 ar
  17    8   31 1
  18    9   10 ar
  19    9   12 1
  20   10   32 1
  21   11   12 1
  22   11   15 1
  23   12   13 1
  24   13   14 1
  25   14   15 1
  26   14   18 1
  27   14   19 1
  28   15   16 1
  29   15   17 1
  30   16   33 1
  31   16   34 1
  32   16   35 1
  33   17   36 1
  34   17   37 1
  35   17   38 1
  36   18   39 1
  37   18   40 1
  38   18   41 1
  39   19   42 1
  40   19   43 1
  41   19   44 1
  42   20   21 1
  43   20   25 1
  44   20   45 1
  45   20   46 1
  46   21   22 1
  47   21   47 1
  48   21   48 1
  49   22   23 1
  50   22   49 1
  51   23   24 1
  52   23   50 1
  53   23   51 1
  54   24   25 1
  55   24   52 1
  56   24   53 1

#	End of record

