#	Name: ASD02562086
#	Creating user name:	WinNT
#	Creation time:	15. 06. 2019 20:25

#	Modifying user name:	WinNT
#	Modification time:	15. 06. 2019 20:25

#	Program:	/corina/corina34_cracker 3.40 0067  02.08.2006

@<TRIPOS>MOLECULE
ASD02562086
  48   50    0    0    0
SMALL
NO_CHARGES


@<TRIPOS>ATOM
   1 C1            -2.2841     6.1812    -8.6172 C.1     
   2 C2            -2.0179     6.7152    -7.3154 C.ar    
   3 C3            -3.0125     7.4189    -6.6300 C.ar    
   4 C4            -2.7533     7.9304    -5.3784 C.ar    
   5 C5            -1.5029     7.7480    -4.7958 C.ar    
   6 C6            -0.5103     7.0485    -5.4754 C.ar    
   7 C7            -0.7646     6.5289    -6.7246 C.ar    
   8 N8            -2.4953     5.7577    -9.6499 N.1     
   9 N9            -1.2438     8.2676    -3.5288 N.pl3   
  10 C10           -2.2332     8.2542    -2.5590 C.ar    
  11 N11           -2.0081     8.8519    -1.3986 N.ar    
  12 C12           -2.9370     8.8565    -0.4481 C.ar    
  13 C13           -4.1571     8.2209    -0.6898 C.ar    
  14 C14           -4.3505     7.6098    -1.9133 C.ar    
  15 N15           -3.3826     7.6485    -2.8174 N.ar    
  16 N16           -5.2184     8.2023     0.3419 N.pl3   
  17 O17           -6.2282     7.5446     0.1650 O.2     
  18 O18           -5.0819     8.8446     1.3677 O.2     
  19 N19           -2.6983     9.4827     0.7658 N.pl3   
  20 C20           -1.5335    10.2253     0.9496 C.ar    
  21 C21           -1.5983    11.6143     1.0103 C.ar    
  22 C22           -0.4505    12.3515     1.1922 C.ar    
  23 C23            0.7835    11.7023     1.3162 C.ar    
  24 C24            0.8441    10.3051     1.2547 C.ar    
  25 C25           -0.3093     9.5754     1.0778 C.ar    
  26 C26           -0.2460     8.0710     1.0176 C.3     
  27 C27           -2.9273    12.3121     0.8761 C.3     
  28 C28            2.0122    12.4855     1.5102 C.2     
  29 C29            3.2012    11.8575     1.6296 C.2     
  30 C30            4.3982    12.6206     1.8185 C.1     
  31 N31            5.3477    13.2259     1.9684 N.1     
  32 H32           -3.9830     7.5614    -7.0819 H       
  33 H33           -3.5212     8.4741    -4.8483 H       
  34 H34            0.4593     6.9094    -5.0206 H       
  35 H35            0.0047     5.9822    -7.2497 H       
  36 H36           -0.3708     8.6386    -3.3260 H       
  37 H37           -5.2822     7.1093    -2.1322 H       
  38 H38           -3.3422     9.4039     1.4870 H       
  39 H39           -0.5017    13.4292     1.2388 H       
  40 H40            1.7942     9.8003     1.3496 H       
  41 H41            0.0211     7.7587     0.0080 H       
  42 H42            0.5053     7.7105     1.7202 H       
  43 H43           -1.2188     7.6556     1.2810 H       
  44 H44           -3.3770    12.4298     1.8620 H       
  45 H45           -2.7786    13.2932     0.4250 H       
  46 H46           -3.5874    11.7179     0.2442 H       
  47 H47            1.9637    13.5634     1.5571 H       
  48 H48            3.2497    10.7796     1.5827 H       
@<TRIPOS>BOND
   1    1    2 1
   2    1    8 3
   3    2    3 ar
   4    2    7 ar
   5    3    4 ar
   6    3   32 1
   7    4    5 ar
   8    4   33 1
   9    5    6 ar
  10    5    9 1
  11    6    7 ar
  12    6   34 1
  13    7   35 1
  14    9   10 1
  15    9   36 1
  16   10   11 ar
  17   10   15 ar
  18   11   12 ar
  19   12   13 ar
  20   12   19 1
  21   13   14 ar
  22   13   16 1
  23   14   15 ar
  24   14   37 1
  25   16   17 2
  26   16   18 2
  27   19   20 1
  28   19   38 1
  29   20   21 ar
  30   20   25 ar
  31   21   22 ar
  32   21   27 1
  33   22   23 ar
  34   22   39 1
  35   23   24 ar
  36   23   28 1
  37   24   25 ar
  38   24   40 1
  39   25   26 1
  40   26   41 1
  41   26   42 1
  42   26   43 1
  43   27   44 1
  44   27   45 1
  45   27   46 1
  46   28   29 2
  47   28   47 1
  48   29   30 1
  49   29   48 1
  50   30   31 3

#	End of record

