#	Name: ASD02039128
#	Creating user name:	WinNT
#	Creation time:	15. 06. 2019 20:17

#	Modifying user name:	WinNT
#	Modification time:	15. 06. 2019 20:17

#	Program:	/corina/corina34_cracker 3.40 0067  02.08.2006

@<TRIPOS>MOLECULE
ASD02039128
  36   38    0    0    0
SMALL
NO_CHARGES


@<TRIPOS>ATOM
   1 N1            -0.0154     1.2823     0.0091 N.2     
   2 N2             0.0021    -0.0041     0.0020 N.2     
   3 C3             1.2155     1.7327    -0.0002 C.2     
   4 O4             2.0320     0.6629    -0.0138 O.3     
   5 C5             1.2335    -0.4225    -0.0120 C.2     
   6 N6             1.6029     3.0599     0.0032 N.pl3   
   7 C7             1.2700     5.4636     0.0197 C.ar    
   8 C8             1.6853    -1.8601    -0.0233 C.3     
   9 C9             1.8230    -2.3323    -1.4478 C.ar    
  10 C10            1.5696     6.0868    -1.1774 C.ar    
  11 C11            1.5883     6.0761     1.2172 C.ar    
  12 C12            2.2061     7.3128     1.2192 C.ar    
  13 C13            2.5065     7.9377     0.0225 C.ar    
  14 Cl14           3.2824     9.4907     0.0245 Cl      
  15 C15            3.0290    -2.1895    -2.1093 C.ar    
  16 C16            0.7463    -2.9123    -2.0896 C.ar    
  17 C17            0.8738    -3.3468    -3.4012 C.ar    
  18 C18            2.0828    -3.1973    -4.0645 C.ar    
  19 C19            3.1584    -2.6212    -3.4163 C.ar    
  20 C20            2.1881     7.3238    -1.1773 C.ar    
  21 Cl21           2.5650     8.1066    -2.6803 Cl      
  22 O22           -0.1840    -3.9182    -4.0348 O.3     
  23 C23            0.5904     4.1185     0.0191 C.3     
  24 H24            2.5452     3.2900    -0.0049 H       
  25 H25            2.6479    -1.9425     0.4815 H       
  26 H26            0.9499    -2.4762     0.4942 H       
  27 H27            1.3209     5.6075    -2.1128 H       
  28 H28            1.3538     5.5884     2.1519 H       
  29 H29            2.4539     7.7911     2.1553 H       
  30 H30            3.8710    -1.7397    -1.6043 H       
  31 H31           -0.1939    -3.0279    -1.5709 H       
  32 H32            2.1846    -3.5350    -5.0853 H       
  33 H33            4.1000    -2.5045    -3.9323 H       
  34 H34           -0.7469    -3.2890    -4.5063 H       
  35 H35           -0.0409     4.0308    -0.8651 H       
  36 H36           -0.0232     4.0210     0.9147 H       
@<TRIPOS>BOND
   1    1    2 1
   2    1    3 2
   3    2    5 2
   4    3    4 1
   5    3    6 1
   6    4    5 1
   7    5    8 1
   8    6   23 1
   9    6   24 1
  10    7   10 ar
  11    7   11 ar
  12    7   23 1
  13    8    9 1
  14    8   25 1
  15    8   26 1
  16    9   15 ar
  17    9   16 ar
  18   10   20 ar
  19   10   27 1
  20   11   12 ar
  21   11   28 1
  22   12   13 ar
  23   12   29 1
  24   13   20 ar
  25   13   14 1
  26   15   19 ar
  27   15   30 1
  28   16   17 ar
  29   16   31 1
  30   17   18 ar
  31   17   22 1
  32   18   19 ar
  33   18   32 1
  34   19   33 1
  35   20   21 1
  36   22   34 1
  37   23   35 1
  38   23   36 1

#	End of record

