#	Name: ASD03170014
#	Creating user name:	WinNT
#	Creation time:	15. 06. 2019 20:33

#	Modifying user name:	WinNT
#	Modification time:	15. 06. 2019 20:33

#	Program:	/corina/corina34_cracker 3.40 0067  02.08.2006

@<TRIPOS>MOLECULE
ASD03170014
  66   69    0    0    0
SMALL
NO_CHARGES


@<TRIPOS>ATOM
   1 O1             0.5068     2.2571    -1.0021 O.3     
   2 C2             0.8242     0.9609    -1.5130 C.3     
   3 C3            -0.4492     0.1159    -1.5870 C.3     
   4 O4            -1.3462     0.6888    -2.5405 O.3     
   5 C5            -2.5737    -0.0278    -2.6874 C.3     
   6 O6            -3.4121     0.2270    -1.5585 O.3     
   7 C7            -4.0207     1.5201    -1.5666 C.3     
   8 C8            -5.3656     1.4463    -2.2861 C.3     
   9 C9            -6.0930     2.7883    -2.2457 C.3     
  10 C10           -7.4388     2.6354    -2.9079 C.2     
  11 O11           -8.4245     3.1025    -2.3881 O.2     
  12 O12           -7.5421     1.9803    -4.0749 O.3     
  13 C13           -8.8689     1.8715    -4.6547 C.3     
  14 C14           -6.2876     3.2519    -0.7893 C.3     
  15 C15           -4.9059     3.3583    -0.1612 C.3     
  16 C16           -4.2258     1.9918    -0.1218 C.3     
  17 C17           -4.8476     4.0728     1.1711 C.3     
  18 C18           -5.4553     3.2449     2.3001 C.3     
  19 C19           -3.3885     4.3876     1.5451 C.3     
  20 C20           -3.3305     5.1355     2.8769 C.3     
  21 O21           -4.2186     6.2830     2.8862 O.3     
  22 C22           -5.4672     6.1045     2.3989 C.2     
  23 O23           -6.4457     6.4688     3.0018 O.2     
  24 C24           -5.5639     5.4260     1.0550 C.3     
  25 C25           -7.0013     5.2271     0.6055 C.3     
  26 C26           -6.9970     4.6058    -0.7952 C.3     
  27 C27           -1.9203     5.6164     3.1031 C.2     
  28 C28           -0.9150     4.9583     3.8481 C.2     
  29 C29            0.1832     5.7330     3.7900 C.2     
  30 O30           -0.1021     6.8191     3.0534 O.3     
  31 C31           -1.3749     6.7514     2.6300 C.2     
  32 C32           -7.1827     2.2267    -0.0927 C.3     
  33 H33            1.2686     2.8480    -0.9278 H       
  34 H34            1.2539     1.0585    -2.5100 H       
  35 H35            1.5439     0.4764    -0.8530 H       
  36 H36           -0.1945    -0.8991    -1.8919 H       
  37 H37           -0.9268     0.0920    -0.6075 H       
  38 H38           -3.0789     0.2991    -3.5962 H       
  39 H39           -2.3655    -1.0958    -2.7515 H       
  40 H40           -3.3670     2.2240    -2.0826 H       
  41 H41           -5.1850     1.1809    -3.3369 H       
  42 H42           -5.9794     0.6616    -1.8483 H       
  43 H43           -5.5081     3.5388    -2.7770 H       
  44 H44           -8.8111     1.3206    -5.5934 H       
  45 H45           -9.5254     1.3433    -3.9632 H       
  46 H46           -9.2661     2.8690    -4.8426 H       
  47 H47           -4.2957     3.9766    -0.8697 H       
  48 H48           -4.8130     1.2621     0.4214 H       
  49 H49           -3.2462     2.0872     0.3547 H       
  50 H50           -5.0159     2.2474     2.2964 H       
  51 H51           -5.2512     3.7283     3.2555 H       
  52 H52           -6.5328     3.1678     2.1548 H       
  53 H53           -2.8363     3.4511     1.6265 H       
  54 H54           -2.9499     5.0019     0.7576 H       
  55 H55           -3.5906     4.4659     3.6985 H       
  56 H56           -5.0352     6.0376     0.3143 H       
  57 H57           -7.5513     4.6011     1.2997 H       
  58 H58           -7.5012     6.2036     0.5536 H       
  59 H59           -6.4862     5.2790    -1.4840 H       
  60 H60           -8.0321     4.4788    -1.1174 H       
  61 H61           -1.0105     4.0150     4.3653 H       
  62 H62            1.1331     5.5181     4.2568 H       
  63 H63           -1.8772     7.4867     2.0190 H       
  64 H64           -6.6867     1.2562    -0.0862 H       
  65 H65           -7.3707     2.5456     0.9325 H       
  66 H66           -8.1290     2.1476    -0.6279 H       
@<TRIPOS>BOND
   1    1    2 1
   2    1   33 1
   3    2    3 1
   4    2   34 1
   5    2   35 1
   6    3    4 1
   7    3   36 1
   8    3   37 1
   9    4    5 1
  10    5    6 1
  11    5   38 1
  12    5   39 1
  13    6    7 1
  14    7    8 1
  15    7   16 1
  16    7   40 1
  17    8    9 1
  18    8   41 1
  19    8   42 1
  20    9   10 1
  21    9   14 1
  22    9   43 1
  23   10   11 2
  24   10   12 1
  25   12   13 1
  26   13   44 1
  27   13   45 1
  28   13   46 1
  29   14   32 1
  30   14   15 1
  31   14   26 1
  32   15   16 1
  33   15   17 1
  34   15   47 1
  35   16   48 1
  36   16   49 1
  37   17   18 1
  38   17   19 1
  39   17   24 1
  40   18   50 1
  41   18   51 1
  42   18   52 1
  43   19   20 1
  44   19   53 1
  45   19   54 1
  46   20   21 1
  47   20   27 1
  48   20   55 1
  49   21   22 1
  50   22   23 2
  51   22   24 1
  52   24   25 1
  53   24   56 1
  54   25   26 1
  55   25   57 1
  56   25   58 1
  57   26   59 1
  58   26   60 1
  59   27   28 1
  60   27   31 2
  61   28   29 2
  62   28   61 1
  63   29   30 1
  64   29   62 1
  65   30   31 1
  66   31   63 1
  67   32   64 1
  68   32   65 1
  69   32   66 1

#	End of record

