#	Name: ASD00191010
#	Creating user name:	WinNT
#	Creation time:	15. 06. 2019 18:33

#	Modifying user name:	WinNT
#	Modification time:	15. 06. 2019 18:33

#	Program:	/corina/corina34_cracker 3.40 0067  02.08.2006

@<TRIPOS>MOLECULE
ASD00191010
  48   50    0    0    0
SMALL
NO_CHARGES


@<TRIPOS>ATOM
   1 C1             0.2260     1.4883     0.2871 C.3     
   2 C2             0.0470     0.0065     0.0787 C.2     
   3 O3             0.5507    -0.5359    -0.8819 O.2     
   4 N4            -0.6728    -0.7158     0.9600 N.am    
   5 N5            -1.0037    -4.8388     0.4800 N.ar    
   6 C6             0.0552    -4.1977     0.0251 C.ar    
   7 C7             0.1945    -2.8141     0.1720 C.ar    
   8 C8            -0.7871    -2.0935     0.8013 C.ar    
   9 C9            -1.9213    -2.7908     1.2863 C.ar    
  10 C10           -2.9634    -2.1198     1.9390 C.ar    
  11 C11           -4.0396    -2.8235     2.3920 C.ar    
  12 C12           -4.1163    -4.2019     2.2144 C.ar    
  13 C13           -3.1202    -4.8845     1.5841 C.ar    
  14 C14           -1.9964    -4.1921     1.1038 C.ar    
  15 N15            1.0570    -4.9145    -0.6147 N.pl3   
  16 C16            1.0302    -6.3125    -0.6073 C.ar    
  17 C17            2.2129    -7.0315    -0.7217 C.ar    
  18 C18            2.1842    -8.4126    -0.7142 C.ar    
  19 C19            0.9787    -9.0802    -0.5928 C.ar    
  20 C20           -0.2028    -8.3662    -0.4789 C.ar    
  21 C21           -0.1788    -6.9844    -0.4797 C.ar    
  22 C22            1.0772     2.0636    -0.8466 C.3     
  23 C23            1.2589     3.5680    -0.6351 C.3     
  24 C24            2.1101     4.1433    -1.7688 C.3     
  25 C25            2.2918     5.6477    -1.5573 C.3     
  26 Cl26          -1.7137    -9.2075    -0.3274 Cl      
  27 Cl27           0.9466   -10.8159    -0.5838 Cl      
  28 H28           -0.7494     1.9749     0.2920 H       
  29 H29            0.7243     1.6636     1.2405 H       
  30 H30           -1.1111    -0.2753     1.7047 H       
  31 H31            1.0728    -2.3147    -0.2095 H       
  32 H32           -2.9143    -1.0505     2.0830 H       
  33 H33           -4.8425    -2.3051     2.8951 H       
  34 H34           -4.9784    -4.7383     2.5824 H       
  35 H35           -3.1942    -5.9541     1.4543 H       
  36 H36            1.7757    -4.4456    -1.0669 H       
  37 H37            3.1545    -6.5112    -0.8169 H       
  38 H38            3.1039    -8.9717    -0.8036 H       
  39 H39           -1.0999    -6.4277    -0.3905 H       
  40 H40            2.0525     1.5770    -0.8516 H       
  41 H41            0.5789     1.8883    -1.8001 H       
  42 H42            0.2836     4.0546    -0.6302 H       
  43 H43            1.7572     3.7433     0.3183 H       
  44 H44            3.0855     3.6567    -1.7738 H       
  45 H45            1.6118     3.9680    -2.7223 H       
  46 H46            1.3165     6.1343    -1.5523 H       
  47 H47            2.7901     5.8229    -0.6038 H       
  48 H48            2.8982     6.0575    -2.3650 H       
@<TRIPOS>BOND
   1    1    2 1
   2    1   22 1
   3    1   28 1
   4    1   29 1
   5    2    3 2
   6    2    4 am
   7    4    8 1
   8    4   30 1
   9    5    6 ar
  10    5   14 ar
  11    6    7 ar
  12    6   15 1
  13    7    8 ar
  14    7   31 1
  15    8    9 ar
  16    9   10 ar
  17    9   14 ar
  18   10   11 ar
  19   10   32 1
  20   11   12 ar
  21   11   33 1
  22   12   13 ar
  23   12   34 1
  24   13   14 ar
  25   13   35 1
  26   15   16 1
  27   15   36 1
  28   16   17 ar
  29   16   21 ar
  30   17   18 ar
  31   17   37 1
  32   18   19 ar
  33   18   38 1
  34   19   20 ar
  35   19   27 1
  36   20   21 ar
  37   20   26 1
  38   21   39 1
  39   22   23 1
  40   22   40 1
  41   22   41 1
  42   23   24 1
  43   23   42 1
  44   23   43 1
  45   24   25 1
  46   24   44 1
  47   24   45 1
  48   25   46 1
  49   25   47 1
  50   25   48 1

#	End of record

