#	Name: ASD01148247
#	Creating user name:	WinNT
#	Creation time:	15. 06. 2019 19:02

#	Modifying user name:	WinNT
#	Modification time:	15. 06. 2019 19:02

#	Program:	/corina/corina34_cracker 3.40 0067  02.08.2006

@<TRIPOS>MOLECULE
ASD01148247
  52   55    0    0    0
SMALL
NO_CHARGES


@<TRIPOS>ATOM
   1 C1            -0.0167     1.3802     0.0096 C.ar    
   2 C2             0.0021    -0.0041     0.0020 C.ar    
   3 C3            -1.1879    -0.7115     0.0095 C.ar    
   4 C4            -2.3943    -0.0346     0.0246 C.ar    
   5 C5            -2.4118     1.3476     0.0318 C.ar    
   6 C6            -1.2242     2.0549     0.0305 C.ar    
   7 C7            -3.7266     2.0838     0.0472 C.3     
   8 O8            -4.7319     1.3302     0.7551 O.3     
   9 C9            -3.6325     3.3676     0.9059 C.3     
  10 C10           -4.1241     2.8947     2.2608 C.2     
  11 N11           -4.7189     1.7600     2.1020 N.2     
  12 C12           -3.9516     3.6090     3.5410 C.ar    
  13 C13           -4.4561     3.0583     4.7219 C.ar    
  14 C14           -3.2787     4.8331     3.5729 C.ar    
  15 C15           -3.1175     5.4989     4.7669 C.ar    
  16 C16           -3.6266     4.9507     5.9466 C.ar    
  17 C17           -4.2947     3.7243     5.9157 C.ar    
  18 C18           -3.4530     5.6654     7.2286 C.2     
  19 O19           -2.8672     6.7302     7.2563 O.2     
  20 N20           -3.9441     5.1366     8.3668 N.am    
  21 C21           -4.1861     2.4082    -1.3756 C.3     
  22 F22           -4.3286     1.2209    -2.1018 F       
  23 F23           -5.4146     3.0760    -1.3281 F       
  24 F24           -3.2355     3.2243    -1.9980 F       
  25 Cl25          -1.1662    -2.4473    -0.0006 Cl      
  26 Cl26           1.5167    -0.8522    -0.0175 Cl      
  27 Cl27           1.4745     2.2689     0.0002 Cl      
  28 N28           -3.7795     5.8141     9.5820 N.pl3   
  29 C29           -4.5926     6.9965     9.8775 C.3     
  30 C30           -2.8403     5.3624    10.5119 C.ar    
  31 C31           -2.6759     6.0329    11.7173 C.ar    
  32 C32           -1.7466     5.5833    12.6346 C.ar    
  33 C33           -0.9803     4.4668    12.3544 C.ar    
  34 C34           -1.1412     3.7971    11.1552 C.ar    
  35 C35           -2.0726     4.2381    10.2358 C.ar    
  36 H36           -3.3227    -0.5862     0.0305 H       
  37 H37           -1.2391     3.1348     0.0365 H       
  38 H38           -2.6017     3.7165     0.9685 H       
  39 H39           -4.2826     4.1472     0.5089 H       
  40 H40           -4.9729     2.1103     4.6979 H       
  41 H41           -2.8848     5.2568     2.6609 H       
  42 H42           -2.5971     6.4449     4.7917 H       
  43 H43           -4.6882     3.3007     6.8279 H       
  44 H44           -4.4115     4.2870     8.3447 H       
  45 H45           -5.5092     6.6904    10.3817 H       
  46 H46           -4.0309     7.6716    10.5230 H       
  47 H47           -4.8426     7.5071     8.9475 H       
  48 H48           -3.2738     6.9052    11.9366 H       
  49 H49           -1.6180     6.1044    13.5718 H       
  50 H50           -0.2543     4.1172    13.0735 H       
  51 H51           -0.5408     2.9257    10.9393 H       
  52 H52           -2.1977     3.7146     9.2994 H       
@<TRIPOS>BOND
   1    1    2 ar
   2    1   27 1
   3    1    6 ar
   4    2    3 ar
   5    2   26 1
   6    3    4 ar
   7    3   25 1
   8    4    5 ar
   9    4   36 1
  10    5    6 ar
  11    5    7 1
  12    6   37 1
  13    7    8 1
  14    7    9 1
  15    7   21 1
  16    8   11 1
  17    9   10 1
  18    9   38 1
  19    9   39 1
  20   10   11 2
  21   10   12 1
  22   12   13 ar
  23   12   14 ar
  24   13   17 ar
  25   13   40 1
  26   14   15 ar
  27   14   41 1
  28   15   16 ar
  29   15   42 1
  30   16   17 ar
  31   16   18 1
  32   17   43 1
  33   18   19 2
  34   18   20 am
  35   20   28 1
  36   20   44 1
  37   21   22 1
  38   21   23 1
  39   21   24 1
  40   28   29 1
  41   28   30 1
  42   29   45 1
  43   29   46 1
  44   29   47 1
  45   30   31 ar
  46   30   35 ar
  47   31   32 ar
  48   31   48 1
  49   32   33 ar
  50   32   49 1
  51   33   34 ar
  52   33   50 1
  53   34   35 ar
  54   34   51 1
  55   35   52 1

#	End of record

