#	Name: ASD03430787
#	Creating user name:	WinNT
#	Creation time:	15. 06. 2019 20:41

#	Modifying user name:	WinNT
#	Modification time:	15. 06. 2019 20:41

#	Program:	/corina/corina34_cracker 3.40 0067  02.08.2006

@<TRIPOS>MOLECULE
ASD03430787
  30   33    0    0    0
SMALL
NO_CHARGES


@<TRIPOS>ATOM
   1 C1            -0.0166     1.3756     0.0096 C.ar    
   2 C2             0.0021    -0.0041     0.0020 C.ar    
   3 C3             1.2019    -0.6849    -0.0132 C.ar    
   4 C4             2.4128     0.0046    -0.0100 C.ar    
   5 C5             2.3986     1.3939    -0.0076 C.ar    
   6 C6             1.1877     2.0828     0.0019 C.ar    
   7 C7             1.5445    -2.1505    -0.0487 C.3     
   8 C8             3.0312    -2.1564    -0.4301 C.3     
   9 C9             0.4089    -3.8622     1.0006 C.ar    
  10 C10            1.3016    -2.8268     1.2677 C.ar    
  11 C11            0.7104    -2.9050    -1.0438 C.2     
  12 N12            0.0831    -3.8810    -0.3576 N.am    
  13 O13            0.6187    -2.6799    -2.2321 O.2     
  14 C14            1.7649    -2.6145     2.5464 C.ar    
  15 C15            1.3453    -3.4324     3.5808 C.ar    
  16 C16            0.4597    -4.4634     3.3272 C.ar    
  17 C17           -0.0078    -4.6802     2.0473 C.ar    
  18 O18            3.4705    -0.8550     0.0036 O.3     
  19 C19            1.1779     3.5147     0.0033 C.1     
  20 N20            1.1700     4.6507     0.0045 N.1     
  21 H21           -0.9575     1.9057     0.0169 H       
  22 H22           -0.9275    -0.5539     0.0084 H       
  23 H23            3.3294     1.9417    -0.0132 H       
  24 H24            3.5646    -2.9427     0.1039 H       
  25 H25            3.1538    -2.2670    -1.5076 H       
  26 H26           -0.5236    -4.5219    -0.7602 H       
  27 H27            2.4563    -1.8084     2.7427 H       
  28 H28            1.7091    -3.2660     4.5839 H       
  29 H29            0.1327    -5.1020     4.1344 H       
  30 H30           -0.6998    -5.4871     1.8569 H       
@<TRIPOS>BOND
   1    1    2 ar
   2    1    6 ar
   3    1   21 1
   4    2    3 ar
   5    2   22 1
   6    3    4 ar
   7    3    7 1
   8    4    5 ar
   9    4   18 1
  10    5    6 ar
  11    5   23 1
  12    6   19 1
  13    7    8 1
  14    7   10 1
  15    7   11 1
  16    8   18 1
  17    8   24 1
  18    8   25 1
  19    9   10 ar
  20    9   12 1
  21    9   17 ar
  22   10   14 ar
  23   11   12 am
  24   11   13 2
  25   12   26 1
  26   14   15 ar
  27   14   27 1
  28   15   16 ar
  29   15   28 1
  30   16   17 ar
  31   16   29 1
  32   17   30 1
  33   19   20 3

#	End of record

