#	Name: ASD01917851
#	Creating user name:	WinNT
#	Creation time:	15. 06. 2019 20:10

#	Modifying user name:	WinNT
#	Modification time:	15. 06. 2019 20:10

#	Program:	/corina/corina34_cracker 3.40 0067  02.08.2006

@<TRIPOS>MOLECULE
ASD01917851
  47   50    0    0    0
SMALL
NO_CHARGES


@<TRIPOS>ATOM
   1 C1             0.0474     1.0734    -0.4700 C.2     
   2 C2            -0.0512    -0.2685    -0.4293 C.2     
   3 C3            -1.3689    -0.9955    -0.2094 C.3     
   4 C4            -2.3789    -0.0265     0.4098 C.3     
   5 N5            -2.3493     1.2410    -0.3356 N.am    
   6 C6            -1.1074     2.0329    -0.2950 C.3     
   7 C7            -3.4228     1.6640    -1.0320 C.2     
   8 O8            -4.3944     0.9410    -1.1510 O.2     
   9 S9             1.7281     1.5064    -0.7499 S.3     
  10 C10            2.1561    -0.1480    -0.7839 C.2     
  11 N11            1.1133    -0.8791    -0.6017 N.2     
  12 C12            3.5522    -0.6739    -0.9970 C.3     
  13 O13            3.7802    -0.8675    -2.3944 O.3     
  14 C14            5.0001    -1.3413    -2.7607 C.ar    
  15 C15            5.2896    -1.5528    -4.1008 C.ar    
  16 C16            6.5304    -2.0346    -4.4706 C.ar    
  17 C17            7.4834    -2.3059    -3.5063 C.ar    
  18 C18            7.1972    -2.0964    -2.1699 C.ar    
  19 C19            5.9600    -1.6089    -1.7954 C.ar    
  20 C20           -3.4200     2.9958    -1.6466 C.2     
  21 N21           -4.3052     3.4561    -2.5950 N.pl3   
  22 C22           -3.9756     4.7319    -2.9123 C.2     
  23 C23           -2.8942     5.0991    -2.1840 C.2     
  24 C24           -2.5340     4.0167    -1.3752 C.2     
  25 C25           -4.6946     5.6000    -3.9126 C.3     
  26 C26           -5.4179     2.6937    -3.1667 C.3     
  27 H27           -1.7494    -1.3572    -1.1646 H       
  28 H28           -1.2123    -1.8381     0.4642 H       
  29 H29           -3.3784    -0.4579     0.3555 H       
  30 H30           -2.1162     0.1572     1.4516 H       
  31 H31           -1.0247     2.5432     0.6646 H       
  32 H32           -1.1068     2.7625    -1.1048 H       
  33 H33            4.2742     0.0435    -0.6071 H       
  34 H34            3.6661    -1.6241    -0.4752 H       
  35 H35            4.5455    -1.3414    -4.8544 H       
  36 H36            6.7562    -2.1997    -5.5137 H       
  37 H37            8.4529    -2.6825    -3.7973 H       
  38 H38            7.9430    -2.3098    -1.4185 H       
  39 H39            5.7369    -1.4454    -0.7515 H       
  40 H40           -2.4002     6.0589    -2.2188 H       
  41 H41           -1.7149     3.9856    -0.6720 H       
  42 H42           -5.4869     6.1542    -3.4095 H       
  43 H43           -3.9888     6.3001    -4.3596 H       
  44 H44           -5.1280     4.9735    -4.6921 H       
  45 H45           -6.2842     2.7671    -2.5093 H       
  46 H46           -5.6701     3.0985    -4.1468 H       
  47 H47           -5.1272     1.6482    -3.2692 H       
@<TRIPOS>BOND
   1    1    2 2
   2    1    9 1
   3    1    6 1
   4    2    3 1
   5    2   11 1
   6    3    4 1
   7    3   27 1
   8    3   28 1
   9    4    5 1
  10    4   29 1
  11    4   30 1
  12    5    6 1
  13    5    7 am
  14    6   31 1
  15    6   32 1
  16    7    8 2
  17    7   20 1
  18    9   10 1
  19   10   11 2
  20   10   12 1
  21   12   13 1
  22   12   33 1
  23   12   34 1
  24   13   14 1
  25   14   15 ar
  26   14   19 ar
  27   15   16 ar
  28   15   35 1
  29   16   17 ar
  30   16   36 1
  31   17   18 ar
  32   17   37 1
  33   18   19 ar
  34   18   38 1
  35   19   39 1
  36   20   21 1
  37   20   24 2
  38   21   22 1
  39   21   26 1
  40   22   23 2
  41   22   25 1
  42   23   24 1
  43   23   40 1
  44   24   41 1
  45   25   42 1
  46   25   43 1
  47   25   44 1
  48   26   45 1
  49   26   46 1
  50   26   47 1

#	End of record

