#	Name: ASD01912132
#	Creating user name:	WinNT
#	Creation time:	15. 06. 2019 19:59

#	Modifying user name:	WinNT
#	Modification time:	15. 06. 2019 19:59

#	Program:	/corina/corina34_cracker 3.40 0067  02.08.2006

@<TRIPOS>MOLECULE
ASD01912132
  43   46    0    0    0
SMALL
NO_CHARGES


@<TRIPOS>ATOM
   1 C1            -0.0187     1.5262     0.0104 C.3     
   2 C2             0.0021    -0.0041     0.0020 C.3     
   3 C3            -1.4330    -0.5353    -0.0203 C.3     
   4 C4            -2.1656    -0.0686     1.2416 C.3     
   5 N5            -2.0651     1.3943     1.3330 N.am    
   6 C6            -0.7353     2.0162     1.2726 C.3     
   7 C7            -4.5002     1.5124     1.5288 C.ar    
   8 C8            -3.1717     2.1515     1.4697 C.2     
   9 O9            -3.0751     3.3612     1.5443 O.2     
  10 C10            1.3949     2.0484    -0.0003 C.2     
  11 O11            2.3350     1.8139     0.9206 O.3     
  12 N12            3.3640     2.3797     0.6169 N.2     
  13 C13            3.2058     3.0271    -0.5077 C.2     
  14 N14            1.9350     2.8129    -0.9165 N.2     
  15 C15            4.2316     3.8405    -1.2081 C.ar    
  16 C16            5.5065     3.9626    -0.6624 C.ar    
  17 C17            6.4532     4.7242    -1.3273 C.ar    
  18 C18            6.0916     5.3385    -2.5170 C.ar    
  19 C19            4.8061     5.1742    -3.0016 C.ar    
  20 N20            3.9272     4.4402    -2.3514 N.ar    
  21 C21           -5.2264     1.2893     0.3541 C.ar    
  22 C22           -6.4700     0.6895     0.4186 C.ar    
  23 C23           -6.9968     0.3103     1.6399 C.ar    
  24 C24           -6.2857     0.5271     2.8061 C.ar    
  25 C25           -5.0383     1.1208     2.7594 C.ar    
  26 F26           -4.3453     1.3318     3.8998 F       
  27 F27           -4.7138     1.6593    -0.8399 F       
  28 H28           -0.5468     1.8877    -0.8719 H       
  29 H29            0.5330    -0.3552    -0.8828 H       
  30 H30            0.5091    -0.3653     0.8967 H       
  31 H31           -1.9483    -0.1543    -0.9020 H       
  32 H32           -1.4172    -1.6248    -0.0499 H       
  33 H33           -3.2144    -0.3599     1.1840 H       
  34 H34           -1.7060    -0.5221     2.1198 H       
  35 H35           -0.1590     1.7328     2.1533 H       
  36 H36           -0.8403     3.1005     1.2355 H       
  37 H37            5.7537     3.4705     0.2667 H       
  38 H38            7.4503     4.8375    -0.9281 H       
  39 H39            6.8064     5.9394    -3.0596 H       
  40 H40            4.5209     5.6513    -3.9276 H       
  41 H41           -7.0322     0.5168    -0.4873 H       
  42 H42           -7.9692    -0.1575     1.6831 H       
  43 H43           -6.7044     0.2280     3.7556 H       
@<TRIPOS>BOND
   1    1    2 1
   2    1   10 1
   3    1    6 1
   4    1   28 1
   5    2    3 1
   6    2   29 1
   7    2   30 1
   8    3    4 1
   9    3   31 1
  10    3   32 1
  11    4    5 1
  12    4   33 1
  13    4   34 1
  14    5    6 1
  15    5    8 am
  16    6   35 1
  17    6   36 1
  18    7    8 1
  19    7   21 ar
  20    7   25 ar
  21    8    9 2
  22   10   11 1
  23   10   14 2
  24   11   12 1
  25   12   13 2
  26   13   14 1
  27   13   15 1
  28   15   16 ar
  29   15   20 ar
  30   16   17 ar
  31   16   37 1
  32   17   18 ar
  33   17   38 1
  34   18   19 ar
  35   18   39 1
  36   19   20 ar
  37   19   40 1
  38   21   22 ar
  39   21   27 1
  40   22   23 ar
  41   22   41 1
  42   23   24 ar
  43   23   42 1
  44   24   25 ar
  45   24   43 1
  46   25   26 1

#	End of record

