#	Name: ASD01881316
#	Creating user name:	WinNT
#	Creation time:	15. 06. 2019 19:42

#	Modifying user name:	WinNT
#	Modification time:	15. 06. 2019 19:42

#	Program:	/corina/corina34_cracker 3.40 0067  02.08.2006

@<TRIPOS>MOLECULE
ASD01881316
  61   63    0    0    0
SMALL
NO_CHARGES


@<TRIPOS>ATOM
   1 C1            -0.0179     1.4698     0.0101 C.2     
   2 C2             0.0021    -0.0041     0.0020 C.ar    
   3 C3             1.2235    -0.6928    -0.0133 C.ar    
   4 C4             1.2301    -2.0794    -0.0209 C.ar    
   5 C5             0.0386    -2.7775    -0.0138 C.ar    
   6 C6            -1.1701    -2.1010     0.0014 C.ar    
   7 C7            -1.1958    -0.7233     0.0154 C.ar    
   8 O8             1.0260     2.0916     0.0035 O.2     
   9 O9            -1.1939     2.1276     0.0193 O.3     
  10 O10            2.3931    -0.0059    -0.0212 O.3     
  11 C11            3.5972    -0.7751    -0.0368 C.3     
  12 C12            4.8036     0.1659    -0.0438 C.3     
  13 C13            6.0928    -0.6577    -0.0605 C.3     
  14 C14            7.2992     0.2833    -0.0674 C.3     
  15 O15            8.5033    -0.4860    -0.0830 O.3     
  16 C16            9.6731     0.2011    -0.0909 C.ar    
  17 C17           10.8781    -0.4873    -0.1061 C.ar    
  18 C18           12.0725     0.2115    -0.1146 C.ar    
  19 C19           12.0546     1.6182    -0.1078 C.ar    
  20 C20           10.8283     2.2963    -0.0924 C.ar    
  21 C21            9.6587     1.5934    -0.0895 C.ar    
  22 C22           10.8858    -1.9942    -0.1128 C.3     
  23 O23           13.2530    -0.4556    -0.1290 O.3     
  24 C24           13.3116     2.3704    -0.1162 C.2     
  25 O25           14.3717     1.7802    -0.1291 O.2     
  26 C26           13.2882     3.8772    -0.1088 C.3     
  27 C27           14.7225     4.4097    -0.1200 C.3     
  28 C28           14.7143     5.9438    -0.2386 C.3     
  29 C29           15.4080     6.4874     1.0275 C.3     
  30 C30           16.3015     5.3154     1.5040 C.3     
  31 C31           15.4209     4.0746     1.2141 C.3     
  32 H32            2.1683    -2.6142    -0.0327 H       
  33 H33            0.0492    -3.8574    -0.0204 H       
  34 H34           -2.0966    -2.6560     0.0065 H       
  35 H35           -2.1405    -0.2001     0.0321 H       
  36 H36           -1.1564     3.0939     0.0244 H       
  37 H37            3.6354    -1.4083     0.8496 H       
  38 H38            3.6181    -1.3992    -0.9302 H       
  39 H39            4.7654     0.7990    -0.9302 H       
  40 H40            4.7827     0.7900     0.8496 H       
  41 H41            6.1310    -1.2909     0.8260 H       
  42 H42            6.1137    -1.2818    -0.9539 H       
  43 H43            7.2610     0.9164    -0.9539 H       
  44 H44            7.2783     0.9074     0.8260 H       
  45 H45           10.8089     3.3761    -0.0871 H       
  46 H46            8.7159     2.1203    -0.0822 H       
  47 H47           10.8773    -2.3530    -1.1421 H       
  48 H48           11.7828    -2.3552     0.3904 H       
  49 H49           10.0029    -2.3644     0.4083 H       
  50 H50           13.5868    -0.6453    -1.0166 H       
  51 H51           12.7603     4.2367    -0.9921 H       
  52 H52           12.7772     4.2282     0.7877 H       
  53 H53           15.2758     3.9738    -0.9518 H       
  54 H54           15.2644     6.2525    -1.1275 H       
  55 H55           13.6885     6.3090    -0.2883 H       
  56 H56           16.0178     7.3576     0.7845 H       
  57 H57           14.6698     6.7384     1.7891 H       
  58 H58           17.2263     5.2758     0.9283 H       
  59 H59           16.5122     5.3990     2.5701 H       
  60 H60           14.6847     3.9359     2.0058 H       
  61 H61           16.0401     3.1839     1.1073 H       
@<TRIPOS>BOND
   1    1    2 1
   2    1    8 2
   3    1    9 1
   4    2    3 ar
   5    2    7 ar
   6    3    4 ar
   7    3   10 1
   8    4    5 ar
   9    4   32 1
  10    5    6 ar
  11    5   33 1
  12    6    7 ar
  13    6   34 1
  14    7   35 1
  15    9   36 1
  16   10   11 1
  17   11   12 1
  18   11   37 1
  19   11   38 1
  20   12   13 1
  21   12   39 1
  22   12   40 1
  23   13   14 1
  24   13   41 1
  25   13   42 1
  26   14   15 1
  27   14   43 1
  28   14   44 1
  29   15   16 1
  30   16   17 ar
  31   16   21 ar
  32   17   18 ar
  33   17   22 1
  34   18   19 ar
  35   18   23 1
  36   19   20 ar
  37   19   24 1
  38   20   21 ar
  39   20   45 1
  40   21   46 1
  41   22   47 1
  42   22   48 1
  43   22   49 1
  44   23   50 1
  45   24   25 2
  46   24   26 1
  47   26   27 1
  48   26   51 1
  49   26   52 1
  50   27   28 1
  51   27   31 1
  52   27   53 1
  53   28   29 1
  54   28   54 1
  55   28   55 1
  56   29   30 1
  57   29   56 1
  58   29   57 1
  59   30   31 1
  60   30   58 1
  61   30   59 1
  62   31   60 1
  63   31   61 1

#	End of record

