#	Name: ASD01209285
#	Creating user name:	WinNT
#	Creation time:	15. 06. 2019 19:11

#	Modifying user name:	WinNT
#	Modification time:	15. 06. 2019 19:11

#	Program:	/corina/corina34_cracker 3.40 0067  02.08.2006

@<TRIPOS>MOLECULE
ASD01209285
  66   68    0    0    0
SMALL
NO_CHARGES


@<TRIPOS>ATOM
   1 C1            -0.0929     1.4883     0.4483 C.3     
   2 C2            -0.3879     0.0876     0.9194 C.ar    
   3 C3            -1.0769    -0.7867     0.0997 C.ar    
   4 C4            -1.3475    -2.0715     0.5318 C.ar    
   5 C5            -0.9287    -2.4824     1.7835 C.ar    
   6 C6            -0.2388    -1.6084     2.6028 C.ar    
   7 C7             0.0355    -0.3249     2.1690 C.ar    
   8 S8            -1.2746    -4.1198     2.3348 S.o2    
   9 O9            -1.2934    -4.0158     3.7518 O.2     
  10 O10           -2.4394    -4.4941     1.6121 O.2     
  11 C11            0.1547    -5.0932     1.7870 C.3     
  12 C12            1.3980     1.7065     0.4235 C.2     
  13 O13            2.1422     0.8596     0.8703 O.2     
  14 N14            1.9042     2.8427    -0.0953 N.am    
  15 C15            3.2795     3.0694    -0.0677 C.ar    
  16 P16            7.7180     3.7468     0.0257 P.3     
  17 O17            8.2570     3.6754    -1.3508 O.2     
  18 O18            8.4288     2.6276     0.9392 O.3     
  19 O19            8.0090     5.2058     0.6410 O.3     
  20 C20            9.3176     5.7762     0.7059 C.3     
  21 C21            9.2378     7.1646     1.3439 C.3     
  22 C22           -0.7398     2.4942     1.4026 C.3     
  23 C23           -2.2606     2.3319     1.3605 C.3     
  24 C24           -2.9152     3.2182     2.4346 C.3     
  25 C25           -3.8353     4.2070     1.6893 C.3     
  26 C26           -4.1512     3.4961     0.3499 C.3     
  27 C27           -2.8058     2.8130    -0.0001 C.3     
  28 C28            9.8469     2.5252     1.0819 C.3     
  29 C29           10.1828     1.3602     2.0151 C.3     
  30 C30            4.1596     2.0017     0.0825 C.ar    
  31 N31            5.4610     2.2202     0.1077 N.ar    
  32 C32            5.9285     3.4514    -0.0095 C.ar    
  33 C33            5.0570     4.5143    -0.1583 C.ar    
  34 N34            3.7526     4.3024    -0.1899 N.ar    
  35 H35           -0.4972     1.6271    -0.5544 H       
  36 H36           -1.4041    -0.4657    -0.8783 H       
  37 H37           -1.8864    -2.7543    -0.1083 H       
  38 H38            0.0881    -1.9293     3.5809 H       
  39 H39            0.5745     0.3578     2.8091 H       
  40 H40            1.0617    -4.6941     2.2410 H       
  41 H41            0.0240    -6.1323     2.0892 H       
  42 H42            0.2373    -5.0382     0.7015 H       
  43 H43            1.3117     3.5028    -0.4878 H       
  44 H44            9.9634     5.1366     1.3076 H       
  45 H45            9.7270     5.8619    -0.3006 H       
  46 H46           10.2359     7.5997     1.3934 H       
  47 H47            8.5920     7.8043     0.7422 H       
  48 H48            8.8284     7.0790     2.3504 H       
  49 H49           -0.3831     2.3139     2.4167 H       
  50 H50           -0.4738     3.5065     1.0985 H       
  51 H51           -2.5291     1.2882     1.5232 H       
  52 H52           -3.5021     2.6047     3.1181 H       
  53 H53           -2.1494     3.7639     2.9859 H       
  54 H54           -4.7508     4.3773     2.2559 H       
  55 H55           -3.3167     5.1485     1.5084 H       
  56 H56           -4.9382     2.7538     0.4828 H       
  57 H57           -4.4274     4.2206    -0.4162 H       
  58 H58           -2.1209     3.5294    -0.4538 H       
  59 H59           -2.9699     1.9661    -0.6663 H       
  60 H60           10.2987     2.3505     0.1054 H       
  61 H61           10.2377     3.4518     1.5024 H       
  62 H62            9.7921     0.4336     1.5945 H       
  63 H63           11.2645     1.2821     2.1239 H       
  64 H64            9.7310     1.5349     2.9915 H       
  65 H65            3.7782     0.9959     0.1785 H       
  66 H66            5.4426     5.5187    -0.2530 H       
@<TRIPOS>BOND
   1    1    2 1
   2    1   12 1
   3    1   22 1
   4    1   35 1
   5    2    3 ar
   6    2    7 ar
   7    3    4 ar
   8    3   36 1
   9    4    5 ar
  10    4   37 1
  11    5    6 ar
  12    5    8 1
  13    6    7 ar
  14    6   38 1
  15    7   39 1
  16    8    9 2
  17    8   10 2
  18    8   11 1
  19   11   40 1
  20   11   41 1
  21   11   42 1
  22   12   13 2
  23   12   14 am
  24   14   15 1
  25   14   43 1
  26   15   30 ar
  27   15   34 ar
  28   16   17 2
  29   16   18 1
  30   16   19 1
  31   16   32 1
  32   18   28 1
  33   19   20 1
  34   20   21 1
  35   20   44 1
  36   20   45 1
  37   21   46 1
  38   21   47 1
  39   21   48 1
  40   22   23 1
  41   22   49 1
  42   22   50 1
  43   23   24 1
  44   23   27 1
  45   23   51 1
  46   24   25 1
  47   24   52 1
  48   24   53 1
  49   25   26 1
  50   25   54 1
  51   25   55 1
  52   26   27 1
  53   26   56 1
  54   26   57 1
  55   27   58 1
  56   27   59 1
  57   28   29 1
  58   28   60 1
  59   28   61 1
  60   29   62 1
  61   29   63 1
  62   29   64 1
  63   30   31 ar
  64   30   65 1
  65   31   32 ar
  66   32   33 ar
  67   33   34 ar
  68   33   66 1

#	End of record

