#	Name: ASD01881483
#	Creating user name:	WinNT
#	Creation time:	15. 06. 2019 19:42

#	Modifying user name:	WinNT
#	Modification time:	15. 06. 2019 19:42

#	Program:	/corina/corina34_cracker 3.40 0067  02.08.2006

@<TRIPOS>MOLECULE
ASD01881483
  50   52    0    0    0
SMALL
NO_CHARGES


@<TRIPOS>ATOM
   1 C1            -0.0167     1.3781     0.0096 C.ar    
   2 C2             0.0021    -0.0041     0.0020 C.ar    
   3 C3             1.2084    -0.6789    -0.0132 C.ar    
   4 C4             2.3960     0.0285    -0.0212 C.ar    
   5 C5             2.3773     1.4107    -0.0145 C.ar    
   6 C6             1.1710     2.0855     0.0021 C.ar    
   7 Br7            4.0182     2.3882    -0.0244 Br      
   8 O8             5.5090     3.3373    -0.0404 O.3     
   9 O9            -2.3947     0.9900    -1.2180 O.3     
  10 C10           -2.1137    -0.4111    -1.2278 C.3     
  11 C11           -1.2926    -0.7753     0.0108 C.3     
  12 C12           -0.9942    -2.2777     0.0042 C.3     
  13 C13           -2.3119    -3.0522     0.0905 C.3     
  14 O14           -3.0165    -2.6609     1.2706 O.3     
  15 C15           -3.3641    -1.2754     1.3103 C.3     
  16 C16           -2.0877    -0.4274     1.2730 C.3     
  17 O17            3.1174     3.9005    -0.0093 O.3     
  18 C18            3.8824     4.9114     0.6459 C.3     
  19 C19            5.2861     4.3704     0.9397 C.3     
  20 C20            5.3416     3.7854     2.3493 C.3     
  21 C21            6.3228     5.4811     0.7855 C.3     
  22 C22            3.9847     6.1412    -0.2610 C.3     
  23 C23            3.1958     5.3003     1.9583 C.3     
  24 H24           -0.9592     1.9054     0.0170 H       
  25 H25            1.2231    -1.7588    -0.0184 H       
  26 H26            3.3386    -0.4987    -0.0324 H       
  27 H27            1.1563     3.1654     0.0069 H       
  28 H28           -2.9134     1.2924    -1.9760 H       
  29 H29           -3.0497    -0.9695    -1.2203 H       
  30 H30           -1.5481    -0.6620    -2.1253 H       
  31 H31           -0.4759    -2.5421    -0.9175 H       
  32 H32           -0.3677    -2.5283     0.8602 H       
  33 H33           -2.9210    -2.8321    -0.7863 H       
  34 H34           -2.1033    -4.1213     0.1293 H       
  35 H35           -3.9869    -1.0320     0.4494 H       
  36 H36           -3.9134    -1.0645     2.2278 H       
  37 H37           -1.4831    -0.6403     2.1547 H       
  38 H38           -2.3530     0.6297     1.2587 H       
  39 H39            4.6209     2.9720     2.4338 H       
  40 H40            6.3439     3.4046     2.5455 H       
  41 H41            5.0996     4.5620     3.0749 H       
  42 H42            6.0980     6.2874     1.4837 H       
  43 H43            7.3154     5.0836     0.9970 H       
  44 H44            6.2948     5.8652    -0.2342 H       
  45 H45            2.9869     6.5365    -0.4511 H       
  46 H46            4.5906     6.9040     0.2282 H       
  47 H47            4.4496     5.8585    -1.2055 H       
  48 H48            3.0991     4.4193     2.5927 H       
  49 H49            3.7932     6.0538     2.4715 H       
  50 H50            2.2063     5.7046     1.7448 H       
@<TRIPOS>BOND
   1    1    2 ar
   2    1    6 ar
   3    1   24 1
   4    2    3 ar
   5    2   11 1
   6    3    4 ar
   7    3   25 1
   8    4    5 ar
   9    4   26 1
  10    5    6 ar
  11    5    7 1
  12    6   27 1
  13    7   17 1
  14    7    8 1
  15    8   19 1
  16    9   10 1
  17    9   28 1
  18   10   11 1
  19   10   29 1
  20   10   30 1
  21   11   12 1
  22   11   16 1
  23   12   13 1
  24   12   31 1
  25   12   32 1
  26   13   14 1
  27   13   33 1
  28   13   34 1
  29   14   15 1
  30   15   16 1
  31   15   35 1
  32   15   36 1
  33   16   37 1
  34   16   38 1
  35   17   18 1
  36   18   19 1
  37   18   22 1
  38   18   23 1
  39   19   20 1
  40   19   21 1
  41   20   39 1
  42   20   40 1
  43   20   41 1
  44   21   42 1
  45   21   43 1
  46   21   44 1
  47   22   45 1
  48   22   46 1
  49   22   47 1
  50   23   48 1
  51   23   49 1
  52   23   50 1

#	End of record

