#	Name: ASD01811582
#	Creating user name:	WinNT
#	Creation time:	15. 06. 2019 19:27

#	Modifying user name:	WinNT
#	Modification time:	15. 06. 2019 19:27

#	Program:	/corina/corina34_cracker 3.40 0067  02.08.2006

@<TRIPOS>MOLECULE
ASD01811582
  64   68    0    0    0
SMALL
NO_CHARGES


@<TRIPOS>ATOM
   1 C1            -7.1074     2.4729    -4.1935 C.1     
   2 C2            -6.1353     3.2445    -3.4793 C.ar    
   3 C3            -4.9827     2.6333    -2.9816 C.ar    
   4 C4            -4.0503     3.3826    -2.2945 C.ar    
   5 C5            -4.2554     4.7367    -2.0976 C.ar    
   6 C6            -5.3955     5.3487    -2.5876 C.ar    
   7 C7            -6.3328     4.6127    -3.2824 C.ar    
   8 N8            -7.8786     1.8608    -4.7601 N.1     
   9 N9            -2.2103     7.9388    -0.2309 N.am    
  10 C10           -1.6334     7.4617    -1.4952 C.3     
  11 C11           -2.6976     6.6601    -2.2513 C.3     
  12 C12           -3.2326     5.5487    -1.3454 C.3     
  13 C13           -3.8837     6.1672    -0.1063 C.3     
  14 C14           -2.8329     6.9632     0.6742 C.3     
  15 C15           -2.1642     9.2458     0.0948 C.2     
  16 C16           -2.8289     9.7247     1.3251 C.ar    
  17 C17           -3.7774    10.7482     1.2552 C.ar    
  18 C18           -4.3990    11.1967     2.4024 C.ar    
  19 C19           -4.0878    10.6375     3.6282 C.ar    
  20 C20           -3.1409     9.6131     3.7116 C.ar    
  21 C21           -2.5149     9.1522     2.5562 C.ar    
  22 O22           -1.5760    10.0308    -0.6231 O.2     
  23 C23           -4.1220    11.3642    -0.0764 C.3     
  24 Cl24          -4.8745    11.2094     5.0662 Cl      
  25 C25           -1.0040     6.8410     7.3614 C.3     
  26 C26           -1.8660     7.8061     6.5859 C.2     
  27 C27           -2.8377     8.5684     7.1374 C.2     
  28 C28           -3.1903     8.5664     8.6046 C.3     
  29 C29           -2.6243     7.2947     9.2482 C.3     
  30 N30           -1.2391     7.0990     8.7939 N.am    
  31 C31           -2.8084     9.0160     5.0233 C.2     
  32 N32           -1.8367     8.0829     5.2539 N.pl3   
  33 N33           -3.3978     9.2932     6.1674 N.2     
  34 C34           -0.2115     7.1530     9.6643 C.2     
  35 O35           -0.4278     7.2840    10.8505 O.2     
  36 C36            1.2062     7.0508     9.1637 C.3     
  37 H37           -4.8217     1.5763    -3.1340 H       
  38 H38           -3.1584     2.9112    -1.9090 H       
  39 H39           -5.5495     6.4060    -2.4301 H       
  40 H40           -7.2200     5.0926    -3.6686 H       
  41 H41           -1.3205     8.3138    -2.0986 H       
  42 H42           -0.7746     6.8235    -1.2871 H       
  43 H43           -3.5156     7.3211    -2.5379 H       
  44 H44           -2.2549     6.2198    -3.1447 H       
  45 H45           -2.4101     4.9025    -1.0389 H       
  46 H46           -4.6904     6.8329    -0.4131 H       
  47 H47           -4.2852     5.3761     0.5270 H       
  48 H48           -2.0719     6.2844     1.0591 H       
  49 H49           -3.3114     7.4864     1.5021 H       
  50 H50           -5.1314    11.9882     2.3429 H       
  51 H51           -1.7857     8.3578     2.6146 H       
  52 H52           -4.8852    10.7616    -0.5688 H       
  53 H53           -4.5003    12.3747     0.0778 H       
  54 H54           -3.2296    11.4016    -0.7012 H       
  55 H55           -1.2836     5.8159     7.1183 H       
  56 H56            0.0464     7.0067     7.1220 H       
  57 H57           -2.7568     9.4432     9.0856 H       
  58 H58           -4.2741     8.5827     8.7198 H       
  59 H59           -2.6405     7.3975    10.3332 H       
  60 H60           -3.2293     6.4372     8.9537 H       
  61 H61           -1.2408     7.6934     4.5951 H       
  62 H62            1.1996     6.8427     8.0938 H       
  63 H63            1.7253     7.9914     9.3477 H       
  64 H64            1.7192     6.2442     9.6875 H       
@<TRIPOS>BOND
   1    1    2 1
   2    1    8 3
   3    2    3 ar
   4    2    7 ar
   5    3    4 ar
   6    3   37 1
   7    4    5 ar
   8    4   38 1
   9    5    6 ar
  10    5   12 1
  11    6    7 ar
  12    6   39 1
  13    7   40 1
  14    9   10 1
  15    9   14 1
  16    9   15 am
  17   10   11 1
  18   10   41 1
  19   10   42 1
  20   11   12 1
  21   11   43 1
  22   11   44 1
  23   12   13 1
  24   12   45 1
  25   13   14 1
  26   13   46 1
  27   13   47 1
  28   14   48 1
  29   14   49 1
  30   15   16 1
  31   15   22 2
  32   16   17 ar
  33   16   21 ar
  34   17   18 ar
  35   17   23 1
  36   18   19 ar
  37   18   50 1
  38   19   20 ar
  39   19   24 1
  40   20   21 ar
  41   20   31 1
  42   21   51 1
  43   23   52 1
  44   23   53 1
  45   23   54 1
  46   25   26 1
  47   25   30 1
  48   25   55 1
  49   25   56 1
  50   26   27 2
  51   26   32 1
  52   27   28 1
  53   27   33 1
  54   28   29 1
  55   28   57 1
  56   28   58 1
  57   29   30 1
  58   29   59 1
  59   29   60 1
  60   30   34 am
  61   31   32 1
  62   31   33 2
  63   32   61 1
  64   34   35 2
  65   34   36 1
  66   36   62 1
  67   36   63 1
  68   36   64 1

#	End of record

