#	Name: ASD03090545
#	Creating user name:	WinNT
#	Creation time:	15. 06. 2019 20:29

#	Modifying user name:	WinNT
#	Modification time:	15. 06. 2019 20:29

#	Program:	/corina/corina34_cracker 3.40 0067  02.08.2006

@<TRIPOS>MOLECULE
ASD03090545
  47   50    0    0    0
SMALL
NO_CHARGES


@<TRIPOS>ATOM
   1 C1            -2.1970     1.4691     0.5951 C.2     
   2 C2            -2.1789    -0.0377     0.5805 C.3     
   3 O3            -3.1113     2.0595     1.1305 O.2     
   4 N4            -1.1943     2.1606     0.0182 N.am    
   5 C5            -0.1150     4.3263     0.0401 C.ar    
   6 C6            -1.2647     3.5580    -0.0664 C.ar    
   7 C7            -2.4910     4.1922    -0.2589 C.ar    
   8 C8            -2.5136     5.5725    -0.3368 C.ar    
   9 C9            -1.3202     6.2779    -0.2213 C.ar    
  10 N10           -0.1729     5.6417    -0.0393 N.ar    
  11 S11           -1.3350     8.0371    -0.3188 S.3     
  12 C12            0.3388     8.4672     0.0251 C.ar    
  13 C13            1.2317     8.6756    -1.0180 C.ar    
  14 C14            2.5469     9.0141    -0.7432 C.ar    
  15 C15            2.9690     9.1443     0.5729 C.ar    
  16 C16            2.0795     8.9362     1.6098 C.ar    
  17 C17            0.7659     8.6041     1.3405 C.ar    
  18 O18            3.4233     9.2183    -1.7616 O.3     
  19 C19            4.7631     9.5645    -1.4049 C.3     
  20 F20            5.3188     8.5407    -0.6302 F       
  21 F21            5.5249     9.7371    -2.5655 F       
  22 F22            4.7572    10.7548    -0.6697 F       
  23 N23           -6.8739    -1.9954     2.9996 N.pl3   
  24 C24           -7.6951    -2.0507     1.9065 C.2     
  25 C25           -7.0339    -1.6323     0.8158 C.2     
  26 C26           -5.6784    -1.2803     1.2455 C.ar    
  27 C27           -4.5470    -0.7944     0.5871 C.ar    
  28 C28           -3.3998    -0.5616     1.2918 C.ar    
  29 C29           -3.3498    -0.8043     2.6578 C.ar    
  30 C30           -4.4541    -1.2840     3.3271 C.ar    
  31 C31           -5.6327    -1.5282     2.6294 C.ar    
  32 H32           -2.1796    -0.3911    -0.4506 H       
  33 H33           -1.2822    -0.3953     1.0866 H       
  34 H34           -0.4240     1.6914    -0.3386 H       
  35 H35            0.8382     3.8423     0.1938 H       
  36 H36           -3.4021     3.6188    -0.3455 H       
  37 H37           -3.4462     6.0965    -0.4858 H       
  38 H38            0.9018     8.5736    -2.0413 H       
  39 H39            3.9942     9.4081     0.7868 H       
  40 H40            2.4108     9.0378     2.6327 H       
  41 H41            0.0716     8.4467     2.1526 H       
  42 H42           -7.1293    -2.2443     3.9016 H       
  43 H43           -8.7229    -2.3822     1.9193 H       
  44 H44           -7.4267    -1.5674    -0.1882 H       
  45 H45           -4.5782    -0.6041    -0.4755 H       
  46 H46           -2.4358    -0.6154     3.2012 H       
  47 H47           -4.4051    -1.4700     4.3898 H       
@<TRIPOS>BOND
   1    1    2 1
   2    1    3 2
   3    1    4 am
   4    2   28 1
   5    2   32 1
   6    2   33 1
   7    4    6 1
   8    4   34 1
   9    5    6 ar
  10    5   10 ar
  11    5   35 1
  12    6    7 ar
  13    7    8 ar
  14    7   36 1
  15    8    9 ar
  16    8   37 1
  17    9   10 ar
  18    9   11 1
  19   11   12 1
  20   12   13 ar
  21   12   17 ar
  22   13   14 ar
  23   13   38 1
  24   14   15 ar
  25   14   18 1
  26   15   16 ar
  27   15   39 1
  28   16   17 ar
  29   16   40 1
  30   17   41 1
  31   18   19 1
  32   19   20 1
  33   19   21 1
  34   19   22 1
  35   23   24 1
  36   23   31 1
  37   23   42 1
  38   24   25 2
  39   24   43 1
  40   25   26 1
  41   25   44 1
  42   26   27 ar
  43   26   31 ar
  44   27   28 ar
  45   27   45 1
  46   28   29 ar
  47   29   30 ar
  48   29   46 1
  49   30   31 ar
  50   30   47 1

#	End of record

