#	Name: ASD01915771
#	Creating user name:	WinNT
#	Creation time:	15. 06. 2019 20:06

#	Modifying user name:	WinNT
#	Modification time:	15. 06. 2019 20:06

#	Program:	/corina/corina34_cracker 3.40 0067  02.08.2006

@<TRIPOS>MOLECULE
ASD01915771
  37   39    0    0    0
SMALL
NO_CHARGES


@<TRIPOS>ATOM
   1 C1            -0.4094     1.7393     0.1052 C.ar    
   2 C2            -0.5418     0.3890     0.3740 C.ar    
   3 N3             0.5016    -0.3407     0.7073 N.ar    
   4 C4             1.7194     0.1811     0.8002 C.ar    
   5 C5             1.9324     1.5320     0.5448 C.ar    
   6 C6             0.8484     2.3306     0.1898 C.ar    
   7 C7            -1.9008    -0.2560     0.2844 C.3     
   8 O8             1.0138     3.6530    -0.0679 O.3     
   9 C9             2.2654     4.1718     0.0375 C.ar    
  10 C10            3.1956     3.9760    -0.9729 C.ar    
  11 N11            4.4109     4.4775    -0.8749 N.ar    
  12 C12            4.7901     5.1790     0.1751 C.ar    
  13 C13            3.9192     5.4164     1.2224 C.ar    
  14 C14            2.6305     4.9121     1.1579 C.ar    
  15 C15            2.8612    -0.6831     1.1796 C.2     
  16 N16            2.6617    -1.9925     1.4287 N.am    
  17 O17            3.9777    -0.2114     1.2661 O.2     
  18 C18            3.7482    -2.8268     1.6822 C.ar    
  19 C19            3.5475    -4.1941     1.8229 C.ar    
  20 C20            4.6381    -5.0128     2.0750 C.ar    
  21 C21            5.8959    -4.4279     2.1774 C.ar    
  22 C22            6.0193    -3.0617     2.0262 C.ar    
  23 N23            4.9633    -2.3094     1.7815 N.ar    
  24 F24            4.4824    -6.3471     2.2183 F       
  25 H25           -1.2717     2.3277    -0.1718 H       
  26 H26            2.9233     1.9548     0.6211 H       
  27 H27           -2.0617    -0.6252    -0.7285 H       
  28 H28           -1.9554    -1.0874     0.9872 H       
  29 H29           -2.6683     0.4781     0.5297 H       
  30 H30            2.9215     3.4065    -1.8487 H       
  31 H31            5.7947     5.5732     0.2180 H       
  32 H32            4.2386     5.9915     2.0789 H       
  33 H33            1.9289     5.0824     1.9611 H       
  34 H34            1.7615    -2.3540     1.4315 H       
  35 H35            2.5560    -4.6137     1.7374 H       
  36 H36            6.7664    -5.0363     2.3735 H       
  37 H37            6.9938    -2.6028     2.1048 H       
@<TRIPOS>BOND
   1    1    2 ar
   2    1    6 ar
   3    1   25 1
   4    2    3 ar
   5    2    7 1
   6    3    4 ar
   7    4    5 ar
   8    4   15 1
   9    5    6 ar
  10    5   26 1
  11    6    8 1
  12    7   27 1
  13    7   28 1
  14    7   29 1
  15    8    9 1
  16    9   10 ar
  17    9   14 ar
  18   10   11 ar
  19   10   30 1
  20   11   12 ar
  21   12   13 ar
  22   12   31 1
  23   13   14 ar
  24   13   32 1
  25   14   33 1
  26   15   16 am
  27   15   17 2
  28   16   18 1
  29   16   34 1
  30   18   19 ar
  31   18   23 ar
  32   19   20 ar
  33   19   35 1
  34   20   21 ar
  35   20   24 1
  36   21   22 ar
  37   21   36 1
  38   22   23 ar
  39   22   37 1

#	End of record

