#	Name: ASD03330781
#	Creating user name:	WinNT
#	Creation time:	15. 06. 2019 20:37

#	Modifying user name:	WinNT
#	Modification time:	15. 06. 2019 20:37

#	Program:	/corina/corina34_cracker 3.40 0067  02.08.2006

@<TRIPOS>MOLECULE
ASD03330781
  57   59    0    0    0
SMALL
NO_CHARGES


@<TRIPOS>ATOM
   1 C1            -0.0159     1.3550     0.0390 C.2     
   2 N2             0.0042    -0.0047     0.0499 N.pl3   
   3 C3             1.2778     1.7739    -0.0299 C.2     
   4 N4             2.0648     0.6764    -0.0775 N.2     
   5 C5             1.3084    -0.3957    -0.0359 C.2     
   6 C6             1.7896    -1.7933    -0.0755 C.ar    
   7 C7             1.7376     3.1737    -0.0496 C.2     
   8 O8             0.9282     4.0803    -0.0020 O.2     
   9 C9             3.5120     4.8412    -0.1400 C.3     
  10 N10            3.0549     3.4494    -0.1204 N.am    
  11 C11            4.8780     4.9198    -0.8247 C.3     
  12 C12            3.6284     5.3516     1.2731 C.2     
  13 O13            3.3563     4.6245     2.2049 O.2     
  14 C14           -1.1734    -0.8711     0.1510 C.3     
  15 C15           -2.2417    -0.3836    -0.8327 C.3     
  16 C16           -3.1085     0.6805    -0.1673 C.3     
  17 N17           -2.3248     1.4887     0.7690 N.3     
  18 C18           -1.2510     2.2172     0.0772 C.3     
  19 C19            1.3009    -2.7284     0.8381 C.ar    
  20 C20            2.7309    -2.1841    -1.0314 C.ar    
  21 C21            3.1768    -3.4919    -1.0632 C.ar    
  22 C22            1.7531    -4.0312     0.7970 C.ar    
  23 C23           -3.1881     2.4107     1.5190 C.3     
  24 N24            4.0348     6.6162     1.5015 N.am    
  25 C25            4.7354     4.5198    -2.2946 C.3     
  26 C26            3.8599     5.5442    -3.0192 C.3     
  27 C27            6.1182     4.4777    -2.9481 C.3     
  28 C28            2.6921    -4.4133    -0.1502 C.ar    
  29 F29            3.2038    -1.2857    -1.9227 F       
  30 Cl30           1.1463    -5.1949     1.9334 Cl      
  31 F31            3.1308    -5.6906    -0.1858 F       
  32 H32            2.7948     5.4515    -0.6889 H       
  33 H33            3.7004     2.7264    -0.1584 H       
  34 H34            5.2584     5.9392    -0.7608 H       
  35 H35            5.5724     4.2412    -0.3293 H       
  36 H36           -0.8938    -1.8959    -0.0932 H       
  37 H37           -1.5682    -0.8323     1.1663 H       
  38 H38           -1.7578     0.0410    -1.7123 H       
  39 H39           -2.8671    -1.2239    -1.1344 H       
  40 H40           -3.5296     1.3300    -0.9347 H       
  41 H41           -3.9204     0.1939     0.3731 H       
  42 H42           -1.0339     3.1414     0.6128 H       
  43 H43           -1.5650     2.4494    -0.9404 H       
  44 H44            0.5702    -2.4325     1.5763 H       
  45 H45            3.9040    -3.7958    -1.8016 H       
  46 H46           -3.9262     1.8401     2.0827 H       
  47 H47           -2.5807     2.9988     2.2070 H       
  48 H48           -3.6982     3.0776     0.8237 H       
  49 H49            4.2524     7.1977     0.7563 H       
  50 H50            4.1097     6.9447     2.4111 H       
  51 H51            4.2725     3.5352    -2.3600 H       
  52 H52            3.7583     5.2592    -4.0664 H       
  53 H53            2.8748     5.5742    -2.5537 H       
  54 H54            4.3228     6.5288    -2.9539 H       
  55 H55            6.7419     3.7479    -2.4319 H       
  56 H56            6.0166     4.1928    -3.9953 H       
  57 H57            6.5811     5.4623    -2.8827 H       
@<TRIPOS>BOND
   1    1    2 1
   2    1    3 2
   3    1   18 1
   4    2   14 1
   5    2    5 1
   6    3    4 1
   7    3    7 1
   8    4    5 2
   9    5    6 1
  10    6   20 ar
  11    6   19 ar
  12    7    8 2
  13    7   10 am
  14    9   10 1
  15    9   11 1
  16    9   12 1
  17    9   32 1
  18   10   33 1
  19   11   25 1
  20   11   34 1
  21   11   35 1
  22   12   13 2
  23   12   24 am
  24   14   15 1
  25   14   36 1
  26   14   37 1
  27   15   16 1
  28   15   38 1
  29   15   39 1
  30   16   17 1
  31   16   40 1
  32   16   41 1
  33   17   18 1
  34   17   23 1
  35   18   42 1
  36   18   43 1
  37   19   22 ar
  38   19   44 1
  39   20   21 ar
  40   20   29 1
  41   21   28 ar
  42   21   45 1
  43   22   30 1
  44   22   28 ar
  45   23   46 1
  46   23   47 1
  47   23   48 1
  48   24   49 1
  49   24   50 1
  50   25   27 1
  51   25   26 1
  52   25   51 1
  53   26   52 1
  54   26   53 1
  55   26   54 1
  56   27   55 1
  57   27   56 1
  58   27   57 1
  59   28   31 1

#	End of record

