#	Name: ASD04570022
#	Creating user name:	WinNT
#	Creation time:	15. 06. 2019 20:49

#	Modifying user name:	WinNT
#	Modification time:	15. 06. 2019 20:49

#	Program:	/corina/corina34_cracker 3.40 0067  02.08.2006

@<TRIPOS>MOLECULE
ASD04570022
 341  341    0    0    0
SMALL
NO_CHARGES


@<TRIPOS>ATOM
   1 C1            -0.0187     1.5258     0.0104 C.3     
   2 C2             0.0021    -0.0041     0.0020 C.3     
   3 C3             0.7182    -0.4975    -1.2568 C.3     
   4 C4             0.7390    -2.0273    -1.2652 C.3     
   5 C5             1.4551    -2.5207    -2.5240 C.3     
   6 C6             1.4758    -4.0506    -2.5324 C.3     
   7 C7             2.1920    -4.5440    -3.7912 C.3     
   8 C8             2.2127    -6.0738    -3.7996 C.3     
   9 C9             2.9289    -6.5673    -5.0584 C.3     
  10 C10            2.9496    -8.0971    -5.0668 C.3     
  11 C11            3.6658    -8.5905    -6.3257 C.3     
  12 C12            3.6865   -10.1203    -6.3341 C.3     
  13 C13            4.4026   -10.6138    -7.5929 C.3     
  14 C14            4.4234   -12.1436    -7.6013 C.3     
  15 C15            5.1395   -12.6370    -8.8601 C.3     
  16 C16            5.1600   -14.1439    -8.8684 C.2     
  17 N17            5.7430   -14.8043    -9.8884 N.am    
  18 O18            4.6518   -14.7622    -7.9572 O.2     
  19 C19            5.7628   -16.2691    -9.8964 C.3     
  20 H20            6.1494   -14.3097   -10.6171 H       
  21 C21            5.8800   -16.7621   -11.3157 C.2     
  22 C22            6.9591   -16.7674    -9.0831 C.3     
  23 C23            6.7781   -16.3732    -7.6159 C.3     
  24 S24            8.1964   -16.9640    -6.6516 S.3     
  25 C25            7.8051   -16.4102    -4.9691 C.3     
  26 N26            5.9170   -18.0854   -11.5685 N.am    
  27 O27            5.9408   -15.9681   -12.2304 O.2     
  28 C28            6.0309   -18.5647   -12.9482 C.3     
  29 C29            6.0513   -20.0715   -12.9565 C.2     
  30 N30            6.1511   -20.7377   -14.1238 N.am    
  31 O31            5.9780   -20.6847   -11.9127 O.2     
  32 C32            6.1709   -22.2026   -14.1319 C.3     
  33 C33            5.6791   -22.7043   -15.4651 C.2     
  34 O34            5.3449   -21.9159   -16.3240 O.2     
  35 N35            5.6107   -24.0291   -15.7030 N.am    
  36 C36            7.6006   -22.6945   -13.8977 C.3     
  37 C37            8.0483   -22.2973   -12.5146 C.ar    
  38 C38            7.8271   -23.1475   -11.4469 C.ar    
  39 C39            8.2365   -22.7857   -10.1781 C.ar    
  40 C40            8.8701   -21.5682    -9.9757 C.ar    
  41 C41            9.0909   -20.7170   -11.0487 C.ar    
  42 C42            8.6846   -21.0859   -12.3165 C.ar    
  43 O43            9.2734   -21.2098    -8.7284 O.3     
  44 C44            5.1326   -24.5169   -16.9991 C.3     
  45 C45            6.2953   -24.5471   -17.9931 C.3     
  46 C46            4.5735   -25.9070   -16.8375 C.2     
  47 O47            4.5744   -26.4380   -15.7471 O.2     
  48 N48            4.0726   -26.5601   -17.9047 N.am    
  49 C49            6.7820   -23.1199   -18.2522 C.3     
  50 C50            7.9272   -23.1497   -19.2313 C.2     
  51 O51            8.3159   -24.2082   -19.6778 O.2     
  52 N52            8.5195   -22.0000   -19.6106 N.am    
  53 C53            3.5291   -27.9115   -17.7477 C.3     
  54 C54            2.0687   -27.8250   -17.2997 C.3     
  55 C55            3.6084   -28.6409   -19.0640 C.2     
  56 C56            1.9990   -27.1962   -15.9066 C.3     
  57 C57            0.5386   -27.1097   -15.4586 C.3     
  58 C58            0.4689   -26.4810   -14.0655 C.3     
  59 N59           -0.9332   -26.3980   -13.6353 N.3     
  60 O60            4.0731   -28.0865   -20.0375 O.2     
  61 N61            3.1629   -29.9093   -19.1594 N.am    
  62 C62            3.2399   -30.6184   -20.4391 C.3     
  63 C63            3.2826   -32.1265   -20.1847 C.3     
  64 C64            2.0299   -30.2836   -21.2726 C.2     
  65 O65            1.0693   -29.7612   -20.7600 O.2     
  66 C66            2.0185   -30.6007   -22.7458 C.3     
  67 C67            4.5742   -32.4828   -19.4461 C.3     
  68 C68            4.6169   -33.9909   -19.1917 C.3     
  69 C69            5.9086   -34.3472   -18.4531 C.3     
  70 N70            5.9495   -35.7952   -18.2088 N.3     
  71 H71            1.0039     1.9031     0.0027 H       
  72 H72           -0.5459     1.8868    -0.8726 H       
  73 H73           -0.5289     1.8773     0.9072 H       
  74 H74            0.5293    -0.3651     0.8851 H       
  75 H75           -1.0205    -0.3814     0.0098 H       
  76 H76            0.1910    -0.1364    -2.1398 H       
  77 H77            1.7408    -0.1202    -1.2645 H       
  78 H78            1.2661    -2.3884    -0.3821 H       
  79 H79           -0.2836    -2.4046    -1.2575 H       
  80 H80            0.9279    -2.1597    -3.4071 H       
  81 H81            2.4777    -2.1435    -2.5317 H       
  82 H82            2.0030    -4.4117    -1.6494 H       
  83 H83            0.4533    -4.4279    -2.5247 H       
  84 H84            1.6648    -4.1829    -4.6743 H       
  85 H85            3.2146    -4.1667    -3.7990 H       
  86 H86            2.7399    -6.4349    -2.9166 H       
  87 H87            1.1901    -6.4511    -3.7919 H       
  88 H88            2.4017    -6.2062    -5.9415 H       
  89 H89            3.9515    -6.1900    -5.0662 H       
  90 H90            3.4768    -8.4582    -4.1838 H       
  91 H91            1.9270    -8.4744    -5.0591 H       
  92 H92            3.1386    -8.2294    -7.2087 H       
  93 H93            4.6884    -8.2132    -6.3334 H       
  94 H94            4.2137   -10.4814    -5.4510 H       
  95 H95            2.6639   -10.4976    -6.3263 H       
  96 H96            3.8755   -10.2527    -8.4759 H       
  97 H97            5.4252   -10.2365    -7.6006 H       
  98 H98            4.9506   -12.5047    -6.7182 H       
  99 H99            3.4008   -12.5209    -7.5935 H       
 100 H100           4.6123   -12.2759    -9.7431 H       
 101 H101           6.1621   -12.2597    -8.8678 H       
 102 H102           4.8407   -16.6474    -9.4553 H       
 103 H103           7.0256   -17.8525    -9.1622 H       
 104 H104           7.8739   -16.3182    -9.4698 H       
 105 H105           6.7116   -15.2881    -7.5368 H       
 106 H106           5.8634   -16.8224    -7.2292 H       
 107 H107           7.7129   -15.3242    -4.9562 H       
 108 H108           6.8646   -16.8585    -4.6486 H       
 109 H109           8.6025   -16.7152    -4.2915 H       
 110 H110           5.8684   -18.7205   -10.8369 H       
 111 H111           5.1786   -18.2097   -13.5276 H       
 112 H112           6.9531   -18.1864   -13.3893 H       
 113 H113           6.2097   -20.2473   -14.9587 H       
 114 H114           5.5229   -22.5791   -13.3405 H       
 115 H115           5.8780   -24.6597   -15.0161 H       
 116 H116           7.6314   -23.7800   -13.9918 H       
 117 H117           8.2647   -22.2468   -14.6371 H       
 118 H118           7.3334   -24.0950   -11.6049 H       
 119 H119           8.0631   -23.4499    -9.3443 H       
 120 H120           9.5840   -19.7687   -10.8937 H       
 121 H121           8.8566   -20.4238   -13.1522 H       
 122 H122          10.1729   -21.4898    -8.5103 H       
 123 H123           4.3529   -23.8528   -17.3720 H       
 124 H124           7.1113   -25.1399   -17.5798 H       
 125 H125           5.9608   -24.9926   -18.9300 H       
 126 H126           4.0719   -26.1354   -18.7768 H       
 127 H127           5.9659   -22.5272   -18.6655 H       
 128 H128           7.1164   -22.6744   -17.3153 H       
 129 H129           8.2087   -21.1534   -19.2535 H       
 130 H130           9.2567   -22.0192   -20.2408 H       
 131 H131           4.1078   -28.4509   -16.9979 H       
 132 H132           1.5084   -27.2103   -18.0042 H       
 133 H133           1.6384   -28.8259   -17.2685 H       
 134 H134           2.5594   -27.8109   -15.2021 H       
 135 H135           2.4294   -26.1953   -15.9377 H       
 136 H136          -0.0217   -26.4951   -16.1631 H       
 137 H137           0.1083   -28.1107   -15.4274 H       
 138 H138           1.0293   -27.0957   -13.3610 H       
 139 H139           0.8993   -25.4801   -14.0966 H       
 140 H140          -1.0060   -25.9858   -12.7172 H       
 141 H141          -1.4876   -25.8871   -14.3060 H       
 142 H142           2.7912   -30.3527   -18.3809 H       
 143 H143           4.1421   -30.3138   -20.9695 H       
 144 H144           2.4250   -32.4170   -19.5778 H       
 145 H145           3.2503   -32.6566   -21.1366 H       
 146 H146           2.9641   -31.0656   -23.0247 H       
 147 H147           1.1988   -31.2853   -22.9638 H       
 148 H148           1.8844   -29.6805   -23.3145 H       
 149 H149           5.4318   -32.1923   -20.0530 H       
 150 H150           4.6065   -31.9527   -18.4942 H       
 151 H151           3.7593   -34.2814   -18.5848 H       
 152 H152           4.5846   -34.5210   -20.1435 H       
 153 H153           6.7661   -34.0567   -19.0600 H       
 154 H154           5.9408   -33.8171   -17.5012 H       
 155 H155           6.7938   -36.0560   -17.7217 H       
 156 H156           5.1314   -36.0998   -17.7029 H       
 157 C157          24.4148    13.0442    35.6564 C.3     
 158 N158          23.0694    12.4579    35.7192 N.3     
 159 C159          22.9545    11.3058    34.8151 C.3     
 160 C160          22.5780    11.7844    33.4366 C.2     
 161 N161          22.9139    11.0543    32.3547 N.am    
 162 C162          22.5480    11.5197    31.0146 C.3     
 163 C163          23.1819    12.8627    30.7587 C.2     
 164 N164          23.3340    13.3063    29.4952 N.am    
 165 C165          23.9503    14.6118    29.2464 C.3     
 166 C166          23.4761    15.1465    27.9196 C.2     
 167 N167          23.9147    16.3425    27.4794 N.am    
 168 O168          22.6998    14.5006    27.2480 O.2     
 169 C169          23.4537    16.8622    26.1896 C.3     
 170 C170          24.4748    17.8262    25.6425 C.2     
 171 C171          22.1192    17.5861    26.3789 C.3     
 172 C172          21.0513    16.5810    26.8153 C.3     
 173 S173          19.4690    17.4392    27.0398 S.3     
 174 C174          18.3497    16.1051    27.5477 C.3     
 175 N175          24.2623    18.4325    24.4578 N.am    
 176 O176          25.4878    18.0564    26.2684 O.2     
 177 C177          25.2549    19.3696    23.9260 C.3     
 178 C178          24.5804    20.3369    22.9877 C.2     
 179 N179          25.3023    21.2965    22.3757 N.am    
 180 O180          23.3879    20.2520    22.7834 O.2     
 181 C181          24.6309    22.3052    21.5523 C.3     
 182 C182          24.4616    21.7780    20.1507 C.2     
 183 O183          24.8622    20.6689    19.8675 O.2     
 184 N184          23.8649    22.5390    19.2120 N.am    
 185 C185          23.7003    22.0265    17.8494 C.3     
 186 C186          22.4234    21.1874    17.7710 C.3     
 187 C187          23.6022    23.1817    16.8866 C.2     
 188 O188          23.6637    24.3209    17.2981 O.2     
 189 N189          23.4461    22.9488    15.5684 N.am    
 190 C190          23.3507    24.0718    14.6324 C.3     
 191 C191          24.7569    24.5263    14.2362 C.3     
 192 C192          22.5978    23.6372    13.4014 C.2     
 193 O193          22.1818    22.5013    13.3145 O.2     
 194 N194          22.3867    24.5108    12.3971 N.am    
 195 C195          21.6548    24.0884    11.2004 C.3     
 196 C196          21.0167    25.3095    10.5353 C.3     
 197 C197          22.6071    23.4308    10.2351 C.2     
 198 O198          23.7815    23.3255    10.5188 O.2     
 199 N199          22.1536    22.9598     9.0566 N.am    
 200 C200          19.9592    25.9039    11.4677 C.3     
 201 C201          19.3211    27.1250    10.8026 C.3     
 202 N202          18.3086    27.6941    11.6954 N.pl3   
 203 C203          17.5977    28.8056    11.3088 C.2     
 204 C204          26.3346    18.5937    23.1690 C.3     
 205 C205          26.9337    17.5262    24.0868 C.3     
 206 O206          25.7552    17.9661    22.0233 O.3     
 207 C207          25.4754    23.5807    21.5189 C.3     
 208 C208          25.5354    24.1797    22.9004 C.2     
 209 O209          26.1556    25.3539    23.0964 O.3     
 210 O210          25.0251    23.6032    23.8316 O.2     
 211 C211          22.5729    19.9473    18.6546 C.3     
 212 C212          21.2960    19.1082    18.5762 C.3     
 213 C213          21.4455    17.8681    19.4598 C.3     
 214 N214          20.2195    17.0624    19.3845 N.3     
 215 C215          25.4671    25.0754    15.4467 C.ar    
 216 C216          26.2154    24.2337    16.2487 C.ar    
 217 C217          25.3738    26.4211    15.7501 C.ar    
 218 C218          26.0242    26.9270    16.8589 C.ar    
 219 C219          26.7714    26.0836    17.6682 C.ar    
 220 C220          26.8673    24.7346    17.3588 C.ar    
 221 O221          27.4125    26.5789    18.7593 O.3     
 222 N222          16.6475    29.3396    12.1467 N.pl3   
 223 N223          17.8246    29.3530    10.1479 N.2     
 224 C224          25.4726    14.4606    29.2206 C.3     
 225 O225          25.8516    13.6458    28.1096 O.3     
 226 O226          23.5553    13.5443    31.6898 O.2     
 227 C227          21.0264    11.6470    30.9168 C.3     
 228 C228          20.3890    10.2627    31.0527 C.3     
 229 C229          18.8675    10.3900    30.9548 C.3     
 230 N230          18.2572     9.0646    31.0849 N.pl3   
 231 C231          16.8902     8.9286    31.0278 C.2     
 232 N232          16.3175     7.6847    31.1499 N.pl3   
 233 N233          16.1374     9.9789    30.8580 N.2     
 234 O234          21.9728    12.8266    33.3009 O.2     
 235 C235          21.8761    10.3539    35.3366 C.3     
 236 C236          22.3169     9.7712    36.6809 C.3     
 237 C237          21.1876     8.9179    37.2618 C.3     
 238 C238          23.5596     8.9023    36.4772 C.3     
 239 C239          23.0794    22.3206     8.1182 C.3     
 240 C240          22.3174    21.3736     7.2273 C.2     
 241 C241          23.7580    23.3916     7.2619 C.3     
 242 C242          22.6916    24.2354     6.5607 C.3     
 243 C243          24.6144    24.2915     8.1551 C.3     
 244 N244          22.9756    20.4230     6.5349 N.am    
 245 O245          21.1118    21.4670     7.1334 O.2     
 246 H246          24.4474    13.9455    36.2685 H       
 247 H247          25.1427    12.3243    36.0307 H       
 248 H248          24.6528    13.2978    34.6233 H       
 249 H249          22.8309    12.2005    36.6652 H       
 250 H250          23.9097    10.7828    34.7699 H       
 251 H251          23.3979    10.2208    32.4633 H       
 252 H252          22.9011    10.8038    30.2724 H       
 253 H253          23.0354    12.7611    28.7505 H       
 254 H254          23.6673    15.3042    30.0392 H       
 255 H255          24.5356    16.8591    28.0165 H       
 256 H256          23.3230    16.0361    25.4907 H       
 257 H257          22.2283    18.3552    27.1436 H       
 258 H258          21.8200    18.0486    25.4384 H       
 259 H259          20.9422    15.8119    26.0507 H       
 260 H260          21.3504    16.1184    27.7559 H       
 261 H261          18.3082    15.3478    26.7647 H       
 262 H262          18.7164    15.6544    28.4699 H       
 263 H263          17.3519    16.5113    27.7135 H       
 264 H264          23.4521    18.2484    23.9572 H       
 265 H265          25.7121    19.9200    24.7483 H       
 266 H266          26.2663    21.3192    22.4804 H       
 267 H267          23.6523    22.5285    21.9772 H       
 268 H268          23.5445    23.4261    19.4385 H       
 269 H269          24.5585    21.4075    17.5880 H       
 270 H270          21.5770    21.7805    18.1175 H       
 271 H271          22.2534    20.8799    16.7392 H       
 272 H272          23.3969    22.0377    15.2393 H       
 273 H273          22.8226    24.8978    15.1086 H       
 274 H274          25.3153    23.6776    13.8413 H       
 275 H275          24.6867    25.3017    13.4733 H       
 276 H276          22.7194    25.4193    12.4666 H       
 277 H277          20.8760    23.3797    11.4822 H       
 278 H278          21.7846    26.0564    10.3339 H       
 279 H279          20.5474    25.0092     9.5984 H       
 280 H280          21.2143    23.0441     8.8297 H       
 281 H281          19.1913    25.1570    11.6691 H       
 282 H282          20.4285    26.2042    12.4046 H       
 283 H283          20.0890    27.8719    10.6012 H       
 284 H284          18.8518    26.8247     9.8657 H       
 285 H285          18.1397    27.2867    12.5594 H       
 286 H286          27.1188    19.2800    22.8496 H       
 287 H287          26.1494    16.8398    24.4061 H       
 288 H288          27.7029    16.9734    23.5475 H       
 289 H289          27.3755    18.0049    24.9607 H       
 290 H290          26.3836    17.4554    21.4947 H       
 291 H291          26.4840    23.3399    21.1831 H       
 292 H292          25.0249    24.2967    20.8316 H       
 293 H293          26.1682    25.6983    23.9999 H       
 294 H294          23.4193    19.3542    18.3081 H       
 295 H295          22.7428    20.2548    19.6865 H       
 296 H296          20.4496    19.7012    18.9226 H       
 297 H297          21.1261    18.8007    17.5443 H       
 298 H298          22.2919    17.2750    19.1133 H       
 299 H299          21.6154    18.1756    20.4916 H       
 300 H300          20.2933    16.2370    19.9600 H       
 301 H301          19.4110    17.6097    19.6392 H       
 302 H302          26.2901    23.1837    16.0072 H       
 303 H303          24.7923    27.0774    15.1196 H       
 304 H304          25.9514    27.9783    17.0953 H       
 305 H305          27.4484    24.0760    17.9873 H       
 306 H306          26.8828    26.5618    19.5682 H       
 307 H307          16.4787    28.9323    13.0107 H       
 308 H308          16.1459    30.1238    11.8739 H       
 309 H309          17.3230    30.1371     9.8751 H       
 310 H310          25.9338    15.4436    29.1244 H       
 311 H311          25.8068    13.9915    30.1460 H       
 312 H312          26.8054    13.5070    28.0309 H       
 313 H313          20.6638    12.2939    31.7156 H       
 314 H314          20.7591    12.0769    29.9515 H       
 315 H315          20.7516     9.6158    30.2539 H       
 316 H316          20.6563     9.8328    32.0180 H       
 317 H317          18.5049    11.0370    31.7536 H       
 318 H318          18.6002    10.8200    29.9895 H       
 319 H319          18.8175     8.2829    31.2114 H       
 320 H320          16.8778     6.9031    31.2764 H       
 321 H321          15.3531     7.5888    31.1097 H       
 322 H322          15.1729     9.8830    30.8177 H       
 323 H323          20.9415    10.8996    35.4661 H       
 324 H324          21.7284     9.5451    34.6210 H       
 325 H325          22.5501    10.5830    37.3698 H       
 326 H326          20.9544     8.1061    36.5729 H       
 327 H327          21.5016     8.5028    38.2195 H       
 328 H328          20.3022     9.5369    37.4069 H       
 329 H329          24.3642     9.5102    36.0634 H       
 330 H330          23.8737     8.4872    37.4349 H       
 331 H331          23.3264     8.0905    35.7883 H       
 332 H332          23.8358    21.7669     8.6744 H       
 333 H333          24.3912    22.9125     6.5152 H       
 334 H334          22.0584    24.7145     7.3074 H       
 335 H335          23.1751    24.9984     5.9507 H       
 336 H336          22.0815    23.5943     5.9244 H       
 337 H337          25.2932    23.6767     8.7461 H       
 338 H338          25.1920    24.9761     7.5339 H       
 339 H339          23.9682    24.8629     8.8214 H       
 340 H340          23.9293    20.3014     6.6642 H       
 341 H341          22.4957    19.8602     5.9072 H       
@<TRIPOS>BOND
   1    1    2 1
   2    1   71 1
   3    1   72 1
   4    1   73 1
   5    2    3 1
   6    2   74 1
   7    2   75 1
   8    3    4 1
   9    3   76 1
  10    3   77 1
  11    4    5 1
  12    4   78 1
  13    4   79 1
  14    5    6 1
  15    5   80 1
  16    5   81 1
  17    6    7 1
  18    6   82 1
  19    6   83 1
  20    7    8 1
  21    7   84 1
  22    7   85 1
  23    8    9 1
  24    8   86 1
  25    8   87 1
  26    9   10 1
  27    9   88 1
  28    9   89 1
  29   10   11 1
  30   10   90 1
  31   10   91 1
  32   11   12 1
  33   11   92 1
  34   11   93 1
  35   12   13 1
  36   12   94 1
  37   12   95 1
  38   13   14 1
  39   13   96 1
  40   13   97 1
  41   14   15 1
  42   14   98 1
  43   14   99 1
  44   15   16 1
  45   15  100 1
  46   15  101 1
  47   16   17 am
  48   16   18 2
  49   17   19 1
  50   17   20 1
  51   19   21 1
  52   19   22 1
  53   19  102 1
  54   21   26 am
  55   21   27 2
  56   22   23 1
  57   22  103 1
  58   22  104 1
  59   23   24 1
  60   23  105 1
  61   23  106 1
  62   24   25 1
  63   25  107 1
  64   25  108 1
  65   25  109 1
  66   26   28 1
  67   26  110 1
  68   28   29 1
  69   28  111 1
  70   28  112 1
  71   29   30 am
  72   29   31 2
  73   30   32 1
  74   30  113 1
  75   32   33 1
  76   32   36 1
  77   32  114 1
  78   33   34 2
  79   33   35 am
  80   35   44 1
  81   35  115 1
  82   36   37 1
  83   36  116 1
  84   36  117 1
  85   37   38 ar
  86   37   42 ar
  87   38   39 ar
  88   38  118 1
  89   39   40 ar
  90   39  119 1
  91   40   41 ar
  92   40   43 1
  93   41   42 ar
  94   41  120 1
  95   42  121 1
  96   43  122 1
  97   44   45 1
  98   44   46 1
  99   44  123 1
 100   45   49 1
 101   45  124 1
 102   45  125 1
 103   46   47 2
 104   46   48 am
 105   48   53 1
 106   48  126 1
 107   49   50 1
 108   49  127 1
 109   49  128 1
 110   50   51 2
 111   50   52 am
 112   52  129 1
 113   52  130 1
 114   53   54 1
 115   53   55 1
 116   53  131 1
 117   54   56 1
 118   54  132 1
 119   54  133 1
 120   55   60 2
 121   55   61 am
 122   56   57 1
 123   56  134 1
 124   56  135 1
 125   57   58 1
 126   57  136 1
 127   57  137 1
 128   58   59 1
 129   58  138 1
 130   58  139 1
 131   59  140 1
 132   59  141 1
 133   61   62 1
 134   61  142 1
 135   62   63 1
 136   62   64 1
 137   62  143 1
 138   63   67 1
 139   63  144 1
 140   63  145 1
 141   64   65 2
 142   64   66 1
 143   66  146 1
 144   66  147 1
 145   66  148 1
 146   67   68 1
 147   67  149 1
 148   67  150 1
 149   68   69 1
 150   68  151 1
 151   68  152 1
 152   69   70 1
 153   69  153 1
 154   69  154 1
 155   70  155 1
 156   70  156 1
 157  157  158 1
 158  157  246 1
 159  157  247 1
 160  157  248 1
 161  158  159 1
 162  158  249 1
 163  159  160 1
 164  159  235 1
 165  159  250 1
 166  160  161 am
 167  160  234 2
 168  161  162 1
 169  161  251 1
 170  162  163 1
 171  162  227 1
 172  162  252 1
 173  163  164 am
 174  163  226 2
 175  164  165 1
 176  164  253 1
 177  165  166 1
 178  165  224 1
 179  165  254 1
 180  166  167 am
 181  166  168 2
 182  167  169 1
 183  167  255 1
 184  169  170 1
 185  169  171 1
 186  169  256 1
 187  170  175 am
 188  170  176 2
 189  171  172 1
 190  171  257 1
 191  171  258 1
 192  172  173 1
 193  172  259 1
 194  172  260 1
 195  173  174 1
 196  174  261 1
 197  174  262 1
 198  174  263 1
 199  175  177 1
 200  175  264 1
 201  177  178 1
 202  177  204 1
 203  177  265 1
 204  178  179 am
 205  178  180 2
 206  179  181 1
 207  179  266 1
 208  181  182 1
 209  181  207 1
 210  181  267 1
 211  182  183 2
 212  182  184 am
 213  184  185 1
 214  184  268 1
 215  185  186 1
 216  185  187 1
 217  185  269 1
 218  186  211 1
 219  186  270 1
 220  186  271 1
 221  187  188 2
 222  187  189 am
 223  189  190 1
 224  189  272 1
 225  190  191 1
 226  190  192 1
 227  190  273 1
 228  191  215 1
 229  191  274 1
 230  191  275 1
 231  192  193 2
 232  192  194 am
 233  194  195 1
 234  194  276 1
 235  195  196 1
 236  195  197 1
 237  195  277 1
 238  196  200 1
 239  196  278 1
 240  196  279 1
 241  197  198 2
 242  197  199 am
 243  199  239 1
 244  199  280 1
 245  200  201 1
 246  200  281 1
 247  200  282 1
 248  201  202 1
 249  201  283 1
 250  201  284 1
 251  202  203 1
 252  202  285 1
 253  203  222 1
 254  203  223 2
 255  204  205 1
 256  204  206 1
 257  204  286 1
 258  205  287 1
 259  205  288 1
 260  205  289 1
 261  206  290 1
 262  207  208 1
 263  207  291 1
 264  207  292 1
 265  208  209 1
 266  208  210 2
 267  209  293 1
 268  211  212 1
 269  211  294 1
 270  211  295 1
 271  212  213 1
 272  212  296 1
 273  212  297 1
 274  213  214 1
 275  213  298 1
 276  213  299 1
 277  214  300 1
 278  214  301 1
 279  215  216 ar
 280  215  217 ar
 281  216  220 ar
 282  216  302 1
 283  217  218 ar
 284  217  303 1
 285  218  219 ar
 286  218  304 1
 287  219  220 ar
 288  219  221 1
 289  220  305 1
 290  221  306 1
 291  222  307 1
 292  222  308 1
 293  223  309 1
 294  224  225 1
 295  224  310 1
 296  224  311 1
 297  225  312 1
 298  227  228 1
 299  227  313 1
 300  227  314 1
 301  228  229 1
 302  228  315 1
 303  228  316 1
 304  229  230 1
 305  229  317 1
 306  229  318 1
 307  230  231 1
 308  230  319 1
 309  231  232 1
 310  231  233 2
 311  232  320 1
 312  232  321 1
 313  233  322 1
 314  235  236 1
 315  235  323 1
 316  235  324 1
 317  236  237 1
 318  236  238 1
 319  236  325 1
 320  237  326 1
 321  237  327 1
 322  237  328 1
 323  238  329 1
 324  238  330 1
 325  238  331 1
 326  239  240 1
 327  239  241 1
 328  239  332 1
 329  240  244 am
 330  240  245 2
 331  241  242 1
 332  241  243 1
 333  241  333 1
 334  242  334 1
 335  242  335 1
 336  242  336 1
 337  243  337 1
 338  243  338 1
 339  243  339 1
 340  244  340 1
 341  244  341 1

#	End of record

