#	Name: ASD01881696
#	Creating user name:	WinNT
#	Creation time:	15. 06. 2019 19:43

#	Modifying user name:	WinNT
#	Modification time:	15. 06. 2019 19:43

#	Program:	/corina/corina34_cracker 3.40 0067  02.08.2006

@<TRIPOS>MOLECULE
ASD01881696
  52   56    0    0    0
SMALL
NO_CHARGES


@<TRIPOS>ATOM
   1 N1            -0.0154     1.2839     0.0091 N.pl3   
   2 N2             0.0021    -0.0041     0.0020 N.2     
   3 N3             1.2033    -0.4649    -0.0119 N.2     
   4 C4             2.0741     0.5645    -0.0147 C.ar    
   5 C5             1.2843     1.7298    -0.0009 C.ar    
   6 C6             3.4670     0.6759    -0.0271 C.ar    
   7 C7             4.0484     1.9285    -0.0255 C.ar    
   8 C8             3.2560     3.0739    -0.0118 C.ar    
   9 C9             1.8924     2.9784    -0.0004 C.ar    
  10 C10           -1.2133     2.1272     0.0196 C.3     
  11 C11           -1.6228     2.4135     1.4657 C.3     
  12 C12           -2.7884     3.3784     1.6921 C.3     
  13 C13           -2.9777     1.8797     1.9352 C.3     
  14 O14            5.4033     2.0444    -0.0370 O.3     
  15 C15            5.9411     3.3683    -0.0346 C.3     
  16 N16           10.0466     3.8906     0.9549 N.am    
  17 C17            9.5730     4.6340    -0.2206 C.3     
  18 C18            8.0438     4.7111    -0.1720 C.3     
  19 C19            7.4694     3.2979    -0.0487 C.3     
  20 C20            7.9623     2.6567     1.2506 C.3     
  21 C21            9.4905     2.5563     1.2181 C.3     
  22 C22           10.9776     4.4201     1.7731 C.2     
  23 O23           11.4325     5.5204     1.5421 O.2     
  24 C24           11.4532     3.6451     2.9748 C.3     
  25 C25           12.5113     4.3005     3.8646 C.3     
  26 C26           11.0677     4.1774     4.3565 C.3     
  27 Br27           4.5472    -0.8761    -0.0451 Br      
  28 H28            3.7236     4.0474    -0.0103 H       
  29 H29            1.2882     3.8735     0.0099 H       
  30 H30           -1.0007     3.0667    -0.4906 H       
  31 H31           -2.0254     1.6113    -0.4926 H       
  32 H32           -0.8089     2.4286     2.1906 H       
  33 H33           -2.7415     4.0280     2.5661 H       
  34 H34           -3.2635     3.8093     0.8108 H       
  35 H35           -3.5773     1.3246     1.2137 H       
  36 H36           -3.0553     1.5434     2.9691 H       
  37 H37            5.5939     3.9031    -0.9187 H       
  38 H38            5.6098     3.8935     0.8612 H       
  39 H39            9.9902     5.6409    -0.2085 H       
  40 H40            9.8842     4.1181    -1.1289 H       
  41 H41            7.7367     5.3050     0.6888 H       
  42 H42            7.6738     5.1758    -1.0859 H       
  43 H43            7.7975     2.6973    -0.8971 H       
  44 H44            7.6559     3.2700     2.0980 H       
  45 H45            7.5342     1.6592     1.3491 H       
  46 H46            9.7950     1.8710     0.4270 H       
  47 H47            9.8533     2.1924     2.1794 H       
  48 H48           11.5024     2.5637     2.8474 H       
  49 H49           13.2563     3.6502     4.3230 H       
  50 H50           12.8634     5.2922     3.5808 H       
  51 H51           10.4702     5.0881     4.3963 H       
  52 H52           10.8631     3.4461     5.1384 H       
@<TRIPOS>BOND
   1    1    2 1
   2    1    5 1
   3    1   10 1
   4    2    3 2
   5    3    4 1
   6    4    5 ar
   7    4    6 ar
   8    5    9 ar
   9    6    7 ar
  10    6   27 1
  11    7    8 ar
  12    7   14 1
  13    8    9 ar
  14    8   28 1
  15    9   29 1
  16   10   11 1
  17   10   30 1
  18   10   31 1
  19   11   12 1
  20   11   13 1
  21   11   32 1
  22   12   13 1
  23   12   33 1
  24   12   34 1
  25   13   35 1
  26   13   36 1
  27   14   15 1
  28   15   19 1
  29   15   37 1
  30   15   38 1
  31   16   17 1
  32   16   21 1
  33   16   22 am
  34   17   18 1
  35   17   39 1
  36   17   40 1
  37   18   19 1
  38   18   41 1
  39   18   42 1
  40   19   20 1
  41   19   43 1
  42   20   21 1
  43   20   44 1
  44   20   45 1
  45   21   46 1
  46   21   47 1
  47   22   23 2
  48   22   24 1
  49   24   25 1
  50   24   26 1
  51   24   48 1
  52   25   26 1
  53   25   49 1
  54   25   50 1
  55   26   51 1
  56   26   52 1

#	End of record

