#	Name: ASD03430049
#	Creating user name:	WinNT
#	Creation time:	15. 06. 2019 20:40

#	Modifying user name:	WinNT
#	Modification time:	15. 06. 2019 20:40

#	Program:	/corina/corina34_cracker 3.40 0067  02.08.2006

@<TRIPOS>MOLECULE
ASD03430049
  49   54    0    0    0
SMALL
NO_CHARGES


@<TRIPOS>ATOM
   1 C1             1.8781     1.2914    -1.0520 C.ar    
   2 C2             1.3054     0.0577    -0.7832 C.ar    
   3 C3             2.0944    -1.0030    -0.3908 C.ar    
   4 C4             3.4702    -0.8488    -0.2496 C.ar    
   5 C5             4.0421     0.3892    -0.5245 C.ar    
   6 C6             3.2525     1.4548    -0.9226 C.ar    
   7 O7             4.0563    -2.0057     0.1723 O.3     
   8 C8             1.7867    -2.4377    -0.0550 C.3     
   9 C9             3.1665    -3.1097    -0.0819 C.3     
  10 C10           -0.0853    -3.2304     1.0339 C.ar    
  11 C11            1.1202    -2.5801     1.2810 C.ar    
  12 C12            0.8417    -3.0636    -1.0400 C.2     
  13 N13           -0.2184    -3.4994    -0.3306 N.am    
  14 O14            1.0008    -3.1580    -2.2386 O.2     
  15 C15            1.4694    -2.2119     2.5661 C.ar    
  16 C16            0.6133    -2.4907     3.6240 C.ar    
  17 C17           -0.5849    -3.1360     3.3852 C.ar    
  18 C18           -0.9354    -3.5051     2.1026 C.ar    
  19 C19           -1.3750    -4.1770    -0.9214 C.3     
  20 O20            1.0853     2.3261    -1.4451 O.3     
  21 C21            1.6487     3.6394    -1.3571 C.3     
  22 C22            3.0663     3.5939    -1.9435 C.3     
  23 O23            3.8362     2.6574    -1.1821 O.3     
  24 O24            2.6490    -1.5773     2.7949 O.3     
  25 C25            3.0012    -1.3305     4.0844 C.ar    
  26 C26            3.7209    -2.2759     4.8006 C.ar    
  27 C27            4.0786    -2.0235     6.1108 C.ar    
  28 C28            3.0055     0.1189     5.9940 C.ar    
  29 C29            2.6464    -0.1307     4.6836 C.ar    
  30 C30            3.7188    -0.8280     6.7094 C.ar    
  31 F31            4.0690    -0.5827     7.9910 F       
  32 H32            0.2378    -0.0728    -0.8811 H       
  33 H33            5.1096     0.5203    -0.4262 H       
  34 H34            3.3641    -3.5489    -1.0598 H       
  35 H35            3.2467    -3.8605     0.7042 H       
  36 H36            0.8836    -2.2044     4.6297 H       
  37 H37           -1.2509    -3.3530     4.2073 H       
  38 H38           -1.8742    -4.0092     1.9264 H       
  39 H39           -2.1252    -3.4376    -1.2017 H       
  40 H40           -1.0597    -4.7284    -1.8072 H       
  41 H41           -1.8008    -4.8692    -0.1950 H       
  42 H42            1.0378     4.3403    -1.9260 H       
  43 H43            1.6922     3.9516    -0.3137 H       
  44 H44            3.0235     3.2736    -2.9845 H       
  45 H45            3.5221     4.5820    -1.8807 H       
  46 H46            4.0010    -3.2089     4.3342 H       
  47 H47            4.6388    -2.7593     6.6687 H       
  48 H48            2.7295     1.0529     6.4608 H       
  49 H49            2.0901     0.6081     4.1259 H       
@<TRIPOS>BOND
   1    1    2 ar
   2    1    6 ar
   3    1   20 1
   4    2    3 ar
   5    2   32 1
   6    3    4 ar
   7    3    8 1
   8    4    5 ar
   9    4    7 1
  10    5    6 ar
  11    5   33 1
  12    6   23 1
  13    7    9 1
  14    8    9 1
  15    8   11 1
  16    8   12 1
  17    9   34 1
  18    9   35 1
  19   10   11 ar
  20   10   13 1
  21   10   18 ar
  22   11   15 ar
  23   12   13 am
  24   12   14 2
  25   13   19 1
  26   15   16 ar
  27   15   24 1
  28   16   17 ar
  29   16   36 1
  30   17   18 ar
  31   17   37 1
  32   18   38 1
  33   19   39 1
  34   19   40 1
  35   19   41 1
  36   20   21 1
  37   21   22 1
  38   21   42 1
  39   21   43 1
  40   22   23 1
  41   22   44 1
  42   22   45 1
  43   24   25 1
  44   25   26 ar
  45   25   29 ar
  46   26   27 ar
  47   26   46 1
  48   27   30 ar
  49   27   47 1
  50   28   29 ar
  51   28   30 ar
  52   28   48 1
  53   29   49 1
  54   30   31 1

#	End of record

