#	Name: ASD02500140
#	Creating user name:	WinNT
#	Creation time:	15. 06. 2019 20:22

#	Modifying user name:	WinNT
#	Modification time:	15. 06. 2019 20:22

#	Program:	/corina/corina34_cracker 3.40 0067  02.08.2006

@<TRIPOS>MOLECULE
ASD02500140
  56   60    0    0    0
SMALL
NO_CHARGES


@<TRIPOS>ATOM
   1 N1            -3.5266     5.5280     0.0570 N.ar    
   2 C2            -4.6759     6.1434    -0.0796 C.ar    
   3 C3            -5.7561     5.8739     0.7582 C.ar    
   4 C4            -5.6322     4.9467     1.7533 C.ar    
   5 C5            -4.3966     4.2875     1.8968 C.ar    
   6 C6            -4.1942     3.3229     2.8966 C.ar    
   7 C7            -2.9840     2.7078     3.0031 C.ar    
   8 C8            -1.9428     3.0231     2.1328 C.ar    
   9 C9            -2.1043     3.9532     1.1523 C.ar    
  10 C10           -3.3389     4.6099     1.0104 C.ar    
  11 S11           -0.7705     4.3333     0.0655 S.o2    
  12 O12           -0.6743     5.7505     0.0287 O.2     
  13 O13            0.3090     3.4906     0.4451 O.2     
  14 N14           -1.2246     3.8557    -1.4537 N.am    
  15 C15           -1.4503     2.5100    -1.7210 C.ar    
  16 C16           -2.5858     2.1231    -2.4275 C.ar    
  17 C17           -2.8120     0.7920    -2.6937 C.ar    
  18 C18           -1.9002    -0.1720    -2.2538 C.ar    
  19 C19           -0.7609     0.2197    -1.5447 C.ar    
  20 C20           -0.5374     1.5528    -1.2866 C.ar    
  21 C21           -2.1399    -1.5998    -2.5370 C.2     
  22 O22           -1.2202    -2.3121    -2.8910 O.2     
  23 N23           -3.3782    -2.1146    -2.4034 N.am    
  24 C24           -3.6138    -3.5536    -2.5868 C.3     
  25 C25           -4.2973    -4.1026    -1.3283 C.3     
  26 N26           -5.4362    -3.2351    -0.9961 N.am    
  27 C27           -5.2006    -1.7961    -0.8128 C.3     
  28 C28           -4.5162    -1.2480    -2.0657 C.3     
  29 C29           -6.6745    -3.7500    -0.8625 C.2     
  30 O30           -7.5965    -3.0351    -0.5185 O.2     
  31 S31           -7.9947    -7.3996    -1.4976 S.3     
  32 C32           -6.2961    -7.2596    -1.6036 C.2     
  33 N33           -5.9284    -6.0460    -1.3866 N.2     
  34 C34           -6.9114    -5.1781    -1.1328 C.2     
  35 C35           -8.1442    -5.7331    -1.1478 C.2     
  36 H36           -4.7885     6.8791    -0.8622 H       
  37 H37           -6.6904     6.3979     0.6211 H       
  38 H38           -6.4590     4.7256     2.4120 H       
  39 H39           -4.9936     3.0706     3.5776 H       
  40 H40           -2.8292     1.9659     3.7725 H       
  41 H41           -0.9921     2.5217     2.2381 H       
  42 H42           -1.3331     4.5148    -2.1571 H       
  43 H43           -3.2901     2.8683    -2.7667 H       
  44 H44           -3.6932     0.4925    -3.2415 H       
  45 H45           -0.0548    -0.5227    -1.2032 H       
  46 H46            0.3449     1.8565    -0.7429 H       
  47 H47           -4.2583    -3.7115    -3.4515 H       
  48 H48           -2.6625    -4.0636    -2.7384 H       
  49 H49           -4.6521    -5.1158    -1.5171 H       
  50 H50           -3.5885    -4.1089    -0.5002 H       
  51 H51           -6.1519    -1.2861    -0.6611 H       
  52 H52           -4.5561    -1.6382     0.0520 H       
  53 H53           -4.1606    -0.2357    -1.8733 H       
  54 H54           -5.2264    -1.2380    -2.8925 H       
  55 H55           -5.6239    -8.0763    -1.8218 H       
  56 H56           -9.0714    -5.2093    -0.9683 H       
@<TRIPOS>BOND
   1    1    2 ar
   2    1   10 ar
   3    2    3 ar
   4    2   36 1
   5    3    4 ar
   6    3   37 1
   7    4    5 ar
   8    4   38 1
   9    5    6 ar
  10    5   10 ar
  11    6    7 ar
  12    6   39 1
  13    7    8 ar
  14    7   40 1
  15    8    9 ar
  16    8   41 1
  17    9   10 ar
  18    9   11 1
  19   11   12 2
  20   11   13 2
  21   11   14 am
  22   14   15 1
  23   14   42 1
  24   15   16 ar
  25   15   20 ar
  26   16   17 ar
  27   16   43 1
  28   17   18 ar
  29   17   44 1
  30   18   19 ar
  31   18   21 1
  32   19   20 ar
  33   19   45 1
  34   20   46 1
  35   21   22 2
  36   21   23 am
  37   23   24 1
  38   23   28 1
  39   24   25 1
  40   24   47 1
  41   24   48 1
  42   25   26 1
  43   25   49 1
  44   25   50 1
  45   26   27 1
  46   26   29 am
  47   27   28 1
  48   27   51 1
  49   27   52 1
  50   28   53 1
  51   28   54 1
  52   29   30 2
  53   29   34 1
  54   31   32 1
  55   31   35 1
  56   32   33 2
  57   32   55 1
  58   33   34 1
  59   34   35 2
  60   35   56 1

#	End of record

