#	Name: ASD03731408
#	Creating user name:	WinNT
#	Creation time:	15. 06. 2019 20:45

#	Modifying user name:	WinNT
#	Modification time:	15. 06. 2019 20:45

#	Program:	/corina/corina34_cracker 3.40 0067  02.08.2006

@<TRIPOS>MOLECULE
ASD03731408
  66   70    0    0    0
SMALL
NO_CHARGES


@<TRIPOS>ATOM
   1 O1             2.0240     2.5614    -0.5958 O.3     
   2 C2             2.3657     1.1632    -0.6336 C.3     
   3 O3             3.5455     1.1211    -1.4575 O.3     
   4 C4             4.1366     2.3437    -1.3127 C.ar    
   5 C5             3.2003     3.2291    -0.7838 C.ar    
   6 C6             5.4192     2.7793    -1.5932 C.ar    
   7 C7             5.7834     4.1006    -1.3523 C.ar    
   8 C8             4.8370     4.9779    -0.8316 C.ar    
   9 C9             3.5591     4.5450    -0.5450 C.ar    
  10 O10            6.9830     4.7220    -1.5391 O.3     
  11 C11            5.5137     6.3173    -0.7127 C.3     
  12 C12            6.7808     6.1482    -1.5620 C.3     
  13 N13            4.5069     8.3014    -0.1893 N.am    
  14 C14            4.6488     7.4376    -1.2144 C.2     
  15 C15            5.8358     6.6696     0.7093 C.ar    
  16 C16            6.5778     6.0592     1.6958 C.ar    
  17 C17            6.6909     6.6484     2.9424 C.ar    
  18 C18            6.0571     7.8514     3.1950 C.ar    
  19 C19            5.3120     8.4663     2.2105 C.ar    
  20 C20            5.1929     7.8806     0.9526 C.ar    
  21 O21            4.1718     7.5445    -2.3244 O.2     
  22 C22            3.7249     9.5380    -0.2642 C.3     
  23 C23            2.2799     9.2536     0.1504 C.3     
  24 C24            1.4633    10.5451     0.0722 C.3     
  25 N25            0.0759    10.2720     0.4703 N.3     
  26 C26           -0.0006     9.8956     1.8882 C.3     
  27 C27           -0.7903    11.4234     0.1839 C.3     
  28 C28           -2.2539    11.0205     0.3751 C.3     
  29 N29           -3.1201    12.1719     0.0887 N.3     
  30 C30           -3.0436    12.5484    -1.3292 C.3     
  31 C31           -3.6153    13.9554    -1.5149 C.3     
  32 C32           -4.5075    11.8988     0.4868 C.3     
  33 C33           -4.6340    12.0145     2.0071 C.3     
  34 H34            2.5853     0.7955     0.3687 H       
  35 H35            1.5611     0.5845    -1.0871 H       
  36 H36            6.1427     2.0893    -2.0016 H       
  37 H37            2.8365     5.2342    -0.1337 H       
  38 H38            7.6245     6.6662    -1.1060 H       
  39 H39            6.6140     6.4993    -2.5804 H       
  40 H40            7.0715     5.1196     1.4963 H       
  41 H41            7.2725     6.1699     3.7165 H       
  42 H42            6.1457     8.3114     4.1681 H       
  43 H43            4.8194     9.4052     2.4159 H       
  44 H44            4.1558    10.2815     0.4064 H       
  45 H45            3.7418     9.9172    -1.2860 H       
  46 H46            1.8491     8.5101    -0.5202 H       
  47 H47            2.2630     8.8744     1.1722 H       
  48 H48            1.8941    11.2886     0.7428 H       
  49 H49            1.4802    10.9243    -0.9496 H       
  50 H50            0.3852    10.7098     2.5016 H       
  51 H51           -1.0386     9.6989     2.1564 H       
  52 H52            0.5949     8.9986     2.0586 H       
  53 H53           -0.5463    12.2396     0.8637 H       
  54 H54           -0.6343    11.7484    -0.8448 H       
  55 H55           -2.4979    10.2043    -0.3048 H       
  56 H56           -2.4099    10.6956     1.4038 H       
  57 H57           -2.0031    12.5332    -1.6536 H       
  58 H58           -3.6202    11.8405    -1.9247 H       
  59 H59           -4.6875    13.9406    -1.3194 H       
  60 H60           -3.1286    14.6398    -0.8201 H       
  61 H61           -3.4369    14.2880    -2.5375 H       
  62 H62           -5.1709    12.6211     0.0110 H       
  63 H63           -4.7835    10.8915     0.1748 H       
  64 H64           -5.6618    11.8047     2.3032 H       
  65 H65           -3.9652    11.2974     2.4830 H       
  66 H66           -4.3652    13.0240     2.3183 H       
@<TRIPOS>BOND
   1    1    2 1
   2    1    5 1
   3    2    3 1
   4    2   34 1
   5    2   35 1
   6    3    4 1
   7    4    5 ar
   8    4    6 ar
   9    5    9 ar
  10    6    7 ar
  11    6   36 1
  12    7    8 ar
  13    7   10 1
  14    8    9 ar
  15    8   11 1
  16    9   37 1
  17   10   12 1
  18   11   12 1
  19   11   14 1
  20   11   15 1
  21   12   38 1
  22   12   39 1
  23   13   14 am
  24   13   20 1
  25   13   22 1
  26   14   21 2
  27   15   16 ar
  28   15   20 ar
  29   16   17 ar
  30   16   40 1
  31   17   18 ar
  32   17   41 1
  33   18   19 ar
  34   18   42 1
  35   19   20 ar
  36   19   43 1
  37   22   23 1
  38   22   44 1
  39   22   45 1
  40   23   24 1
  41   23   46 1
  42   23   47 1
  43   24   25 1
  44   24   48 1
  45   24   49 1
  46   25   26 1
  47   25   27 1
  48   26   50 1
  49   26   51 1
  50   26   52 1
  51   27   28 1
  52   27   53 1
  53   27   54 1
  54   28   29 1
  55   28   55 1
  56   28   56 1
  57   29   30 1
  58   29   32 1
  59   30   31 1
  60   30   57 1
  61   30   58 1
  62   31   59 1
  63   31   60 1
  64   31   61 1
  65   32   33 1
  66   32   62 1
  67   32   63 1
  68   33   64 1
  69   33   65 1
  70   33   66 1

#	End of record

