#	Name: ASD01884041
#	Creating user name:	WinNT
#	Creation time:	15. 06. 2019 19:47

#	Modifying user name:	WinNT
#	Modification time:	15. 06. 2019 19:47

#	Program:	/corina/corina34_cracker 3.40 0067  02.08.2006

@<TRIPOS>MOLECULE
ASD01884041
  55   57    0    0    0
SMALL
NO_CHARGES


@<TRIPOS>ATOM
   1 C1            -0.8297    -0.0403     1.1339 C.2     
   2 C2             0.0021    -0.0041     0.0020 C.2     
   3 C3            -0.4084     0.7466    -1.1152 C.2     
   4 C4            -1.5823     1.4144    -1.0856 C.2     
   5 N5            -2.3876     1.3803     0.0079 N.am    
   6 C6            -2.0503     0.6747     1.1034 C.2     
   7 C7            -0.4523    -0.7912     2.2934 C.1     
   8 N8            -0.1529    -1.3868     3.2133 N.1     
   9 N9             1.1960    -0.6894    -0.0135 N.pl3   
  10 O10           -2.7908     0.6601     2.0721 O.2     
  11 C11           -3.6513     2.1211    -0.0078 C.3     
  12 C12           -4.7644     1.2193    -0.5452 C.3     
  13 C13           -6.0843     1.9930    -0.5616 C.3     
  14 C14           -7.1974     1.0913    -1.0990 C.3     
  15 C15            1.2257    -2.1564     0.0884 C.3     
  16 C16            2.0846    -2.7064    -1.0553 C.3     
  17 N17            3.4012    -2.0553    -1.0315 N.3     
  18 C18            3.2853    -0.6100    -1.2672 C.3     
  19 C19            2.4752     0.0255    -0.1384 C.3     
  20 C20            4.3128    -2.6756    -2.0021 C.3     
  21 C21            5.5590    -1.8375    -2.1276 C.ar    
  22 C22            6.6413    -2.0813    -1.3037 C.ar    
  23 C23            7.7856    -1.3119    -1.4193 C.ar    
  24 C24            7.8454    -0.2991    -2.3597 C.ar    
  25 C25            6.7620    -0.0562    -3.1832 C.ar    
  26 C26            5.6212    -0.8285    -3.0708 C.ar    
  27 Cl27           9.1455    -1.6172    -0.3843 Cl      
  28 C28            6.8269     1.0471    -4.2077 C.3     
  29 F29            8.0733     1.6783    -4.1349 F       
  30 F30            6.6516     0.5072    -5.4863 F       
  31 F31            5.8162     1.9802    -3.9528 F       
  32 H32            0.2151     0.7891    -1.9961 H       
  33 H33           -1.8867     1.9875    -1.9489 H       
  34 H34           -3.8986     2.4393     1.0049 H       
  35 H35           -3.5514     2.9965    -0.6495 H       
  36 H36           -4.5172     0.9011    -1.5579 H       
  37 H37           -4.8644     0.3439     0.0965 H       
  38 H38           -6.3316     2.3112     0.4511 H       
  39 H39           -5.9843     2.8684    -1.2033 H       
  40 H40           -8.1377     1.6424    -1.1107 H       
  41 H41           -6.9501     0.7731    -2.1117 H       
  42 H42           -7.2974     0.2158    -0.4573 H       
  43 H43            1.6592    -2.4483     1.0449 H       
  44 H44            0.2124    -2.5497     0.0071 H       
  45 H45            2.2086    -3.7823    -0.9320 H       
  46 H46            1.5954    -2.5030    -2.0079 H       
  47 H47            4.2800    -0.1655    -1.2977 H       
  48 H48            2.7793    -0.4358    -2.2169 H       
  49 H49            2.2892     1.0749    -0.3671 H       
  50 H50            3.0264    -0.0559     0.7985 H       
  51 H51            4.5805    -3.6758    -1.6615 H       
  52 H52            3.8203    -2.7418    -2.9723 H       
  53 H53            6.5940    -2.8719    -0.5695 H       
  54 H54            8.7381     0.3020    -2.4501 H       
  55 H55            4.7752    -0.6385    -3.7147 H       
@<TRIPOS>BOND
   1    1    2 2
   2    1    7 1
   3    1    6 1
   4    2    3 1
   5    2    9 1
   6    3    4 2
   7    3   32 1
   8    4    5 1
   9    4   33 1
  10    5   11 1
  11    5    6 am
  12    6   10 2
  13    7    8 3
  14    9   15 1
  15    9   19 1
  16   11   12 1
  17   11   34 1
  18   11   35 1
  19   12   13 1
  20   12   36 1
  21   12   37 1
  22   13   14 1
  23   13   38 1
  24   13   39 1
  25   14   40 1
  26   14   41 1
  27   14   42 1
  28   15   16 1
  29   15   43 1
  30   15   44 1
  31   16   17 1
  32   16   45 1
  33   16   46 1
  34   17   18 1
  35   17   20 1
  36   18   19 1
  37   18   47 1
  38   18   48 1
  39   19   49 1
  40   19   50 1
  41   20   21 1
  42   20   51 1
  43   20   52 1
  44   21   22 ar
  45   21   26 ar
  46   22   23 ar
  47   22   53 1
  48   23   24 ar
  49   23   27 1
  50   24   25 ar
  51   24   54 1
  52   25   28 1
  53   25   26 ar
  54   26   55 1
  55   28   29 1
  56   28   30 1
  57   28   31 1

#	End of record

