#	Name: ASD00111019
#	Creating user name:	WinNT
#	Creation time:	15. 06. 2019 18:30

#	Modifying user name:	WinNT
#	Modification time:	15. 06. 2019 18:30

#	Program:	/corina/corina34_cracker 3.40 0067  02.08.2006

@<TRIPOS>MOLECULE
ASD00111019
  34   35    0    0    0
SMALL
NO_CHARGES


@<TRIPOS>ATOM
   1 C1            -0.0660     1.2293     0.3137 C.ar    
   2 C2            -0.1067    -0.1581     0.3241 C.ar    
   3 C3            -1.3279    -0.8072     0.2559 C.ar    
   4 C4            -2.5072    -0.0796     0.1774 C.ar    
   5 C5            -2.4646     1.2946     0.1452 C.ar    
   6 C6            -1.2405     1.9478     0.2299 C.ar    
   7 C7            -3.8045    -0.8444     0.1599 C.3     
   8 C8            -4.7015    -0.3592    -0.9821 C.3     
   9 N9            -5.5864     0.6796    -0.4515 N.3     
  10 C10           -4.9234     1.4629     0.5990 C.3     
  11 C11           -3.6986     2.1507    -0.0019 C.3     
  12 Br12           1.5926     2.1310     0.4219 Br      
  13 C13           -3.4717     3.4845     0.7125 C.3     
  14 C14           -4.6503     4.4194     0.4337 C.3     
  15 O15            1.0453    -0.8752     0.4003 O.3     
  16 C16            0.9240    -2.2990     0.4061 C.3     
  17 H17           -1.3629    -1.8866     0.2636 H       
  18 H18           -1.2081     3.0273     0.2218 H       
  19 H19           -3.5942    -1.9055     0.0256 H       
  20 H20           -4.3204    -0.6985     1.1089 H       
  21 H21           -4.0878     0.0533    -1.7829 H       
  22 H22           -5.2954    -1.1901    -1.3627 H       
  23 H23           -5.9246     1.2783    -1.1900 H       
  24 H24           -5.6123     2.2144     0.9846 H       
  25 H25           -4.6114     0.8009     1.4068 H       
  26 H26           -3.8783     2.3395    -1.0603 H       
  27 H27           -3.3903     3.3126     1.7858 H       
  28 H28           -2.5517     3.9406     0.3468 H       
  29 H29           -4.7316     4.5913    -0.6396 H       
  30 H30           -5.5702     3.9633     0.7993 H       
  31 H31           -4.4886     5.3696     0.9426 H       
  32 H32            0.3285    -2.6094     1.2647 H       
  33 H33            0.4357    -2.6259    -0.5120 H       
  34 H34            1.9152    -2.7479     0.4701 H       
@<TRIPOS>BOND
   1    1    2 ar
   2    1   12 1
   3    1    6 ar
   4    2    3 ar
   5    2   15 1
   6    3    4 ar
   7    3   17 1
   8    4    5 ar
   9    4    7 1
  10    5    6 ar
  11    5   11 1
  12    6   18 1
  13    7    8 1
  14    7   19 1
  15    7   20 1
  16    8    9 1
  17    8   21 1
  18    8   22 1
  19    9   10 1
  20    9   23 1
  21   10   11 1
  22   10   24 1
  23   10   25 1
  24   11   13 1
  25   11   26 1
  26   13   14 1
  27   13   27 1
  28   13   28 1
  29   14   29 1
  30   14   30 1
  31   14   31 1
  32   15   16 1
  33   16   32 1
  34   16   33 1
  35   16   34 1

#	End of record

