#	Name: ASD01915869
#	Creating user name:	WinNT
#	Creation time:	15. 06. 2019 20:06

#	Modifying user name:	WinNT
#	Modification time:	15. 06. 2019 20:06

#	Program:	/corina/corina34_cracker 3.40 0067  02.08.2006

@<TRIPOS>MOLECULE
ASD01915869
  43   47    0    0    0
SMALL
NO_CHARGES


@<TRIPOS>ATOM
   1 C1            -0.0086     1.4178     0.1012 C.2     
   2 N2             0.0289     0.0463    -0.0150 N.pl3   
   3 C3            -1.2044    -0.7391    -0.1448 C.3     
   4 C4            -2.3388    -0.0226     0.5857 C.3     
   5 N5            -2.4044     1.3988     0.2637 N.am    
   6 C6            -1.2834     2.1500     0.1412 C.2     
   7 C7             1.2862     1.8484     0.1747 C.2     
   8 C8             2.0607     0.6822     0.1089 C.2     
   9 N9             1.2444    -0.3402     0.0027 N.2     
  10 C10            3.5655     0.6141     0.1523 C.3     
  11 O11            4.0989     1.9344     0.2724 O.3     
  12 C12            5.4519     2.0508     0.3253 C.ar    
  13 O13           -1.3290     3.3637     0.0683 O.2     
  14 C14            6.0375     3.3030     0.4419 C.ar    
  15 C15            6.2495     0.9171     0.2685 C.ar    
  16 C16            7.6246     1.0381     0.3224 C.ar    
  17 C17            8.2060     2.2877     0.4328 C.ar    
  18 C18            7.4130     3.4187     0.4954 C.ar    
  19 C19           -3.6538     2.0002     0.0771 C.2     
  20 C20           -4.3326     2.1060    -1.0973 C.2     
  21 N21           -4.4232     2.5855     1.0394 N.pl3   
  22 C22           -5.5633     3.0446     0.4196 C.2     
  23 N23           -5.4828     2.7424    -0.8674 N.2     
  24 N24           -4.2522     2.7725     2.4143 N.2     
  25 C25           -5.1661     3.3808     3.1219 C.2     
  26 C26           -6.3393     3.8609     2.5251 C.2     
  27 C27           -6.5435     3.6995     1.1883 C.2     
  28 H28           -1.4596    -0.8440    -1.1993 H       
  29 H29           -1.0552    -1.7258     0.2938 H       
  30 H30           -3.2847    -0.4898     0.3116 H       
  31 H31           -2.1917    -0.1339     1.6600 H       
  32 H32            1.6366     2.8661     0.2638 H       
  33 H33            3.8776     0.0168     1.0089 H       
  34 H34            3.9350     0.1550    -0.7647 H       
  35 H35            5.4185     4.1867     0.4904 H       
  36 H36            5.7959    -0.0592     0.1826 H       
  37 H37            8.2460     0.1559     0.2786 H       
  38 H38            9.2812     2.3803     0.4748 H       
  39 H39            7.8696     4.3937     0.5813 H       
  40 H40           -3.9966     1.7371    -2.0551 H       
  41 H41           -5.0154     3.5155     4.1828 H       
  42 H42           -7.0838     4.3608     3.1269 H       
  43 H43           -7.4465     4.0681     0.7244 H       
@<TRIPOS>BOND
   1    1    2 1
   2    1    7 2
   3    1    6 1
   4    2    3 1
   5    2    9 1
   6    3    4 1
   7    3   28 1
   8    3   29 1
   9    4    5 1
  10    4   30 1
  11    4   31 1
  12    5    6 am
  13    5   19 1
  14    6   13 2
  15    7    8 1
  16    7   32 1
  17    8    9 2
  18    8   10 1
  19   10   11 1
  20   10   33 1
  21   10   34 1
  22   11   12 1
  23   12   14 ar
  24   12   15 ar
  25   14   18 ar
  26   14   35 1
  27   15   16 ar
  28   15   36 1
  29   16   17 ar
  30   16   37 1
  31   17   18 ar
  32   17   38 1
  33   18   39 1
  34   19   21 1
  35   19   20 2
  36   20   23 1
  37   20   40 1
  38   21   22 1
  39   21   24 1
  40   22   23 2
  41   22   27 1
  42   24   25 2
  43   25   26 1
  44   25   41 1
  45   26   27 2
  46   26   42 1
  47   27   43 1

#	End of record

