#	Name: ASD01916150
#	Creating user name:	WinNT
#	Creation time:	15. 06. 2019 20:06

#	Modifying user name:	WinNT
#	Modification time:	15. 06. 2019 20:06

#	Program:	/corina/corina34_cracker 3.40 0067  02.08.2006

@<TRIPOS>MOLECULE
ASD01916150
  45   48    0    0    0
SMALL
NO_CHARGES


@<TRIPOS>ATOM
   1 C1             0.0783     1.3895    -0.0548 C.ar    
   2 C2             0.0834     0.0082    -0.0550 C.ar    
   3 C3             1.2878    -0.6811    -0.0530 C.ar    
   4 C4             2.4851     0.0185    -0.0509 C.ar    
   5 C5             2.4758     1.4023    -0.0506 C.ar    
   6 C6             1.2721     2.0868    -0.0526 C.ar    
   7 O7             1.2940    -2.0401    -0.0528 O.3     
   8 C8             2.5701    -2.6831    -0.0507 C.3     
   9 C9             2.3795    -4.1780    -0.0508 C.2     
  10 C10            1.1497    -4.8486    -0.0525 C.2     
  11 N11            3.3354    -5.0738    -0.0549 N.2     
  12 N12            2.7456    -6.3407    -0.0578 N.pl3   
  13 C13            1.4032    -6.1709    -0.0513 C.2     
  14 C14            3.4269    -7.6381    -0.0753 C.3     
  15 C15            2.4525    -8.7268     0.3872 C.3     
  16 N16            1.1633    -8.5457    -0.2973 N.am    
  17 C17            0.4077    -7.3067    -0.0382 C.3     
  18 C18            0.6870    -9.4832    -1.1403 C.2     
  19 C19           -0.6681    -9.3411    -1.7148 C.ar    
  20 O20            1.3714   -10.4455    -1.4284 O.2     
  21 C21           -0.9249    -9.7756    -3.0167 C.ar    
  22 C22           -3.2108    -9.0800    -2.8098 C.ar    
  23 C23           -2.9670    -8.6478    -1.5037 C.ar    
  24 C24           -1.6923    -8.7786    -0.9559 C.ar    
  25 C25           -2.1919    -9.6430    -3.5558 C.ar    
  26 F26            3.6413     2.0856    -0.0485 F       
  27 F27           -2.4345   -10.0648    -4.8161 F       
  28 C28           -4.0231    -8.0648    -0.7320 C.1     
  29 N29           -4.8608    -7.6024    -0.1198 N.1     
  30 H30           -0.8593     1.9254    -0.0608 H       
  31 H31           -0.8499    -0.5353    -0.0563 H       
  32 H32            3.4236    -0.5159    -0.0490 H       
  33 H33            1.2658     3.1668    -0.0524 H       
  34 H34            3.1272    -2.3878    -0.9399 H       
  35 H35            3.1245    -2.3875     0.8401 H       
  36 H36            0.1730    -4.3875    -0.0546 H       
  37 H37            3.7647    -7.8582    -1.0881 H       
  38 H38            4.2847    -7.6079     0.5966 H       
  39 H39            2.8598    -9.7078     0.1426 H       
  40 H40            2.3064    -8.6507     1.4647 H       
  41 H41           -0.0755    -7.3629     0.9373 H       
  42 H42           -0.3404    -7.1576    -0.8168 H       
  43 H43           -0.1327   -10.2158    -3.6041 H       
  44 H44           -4.1982    -8.9792    -3.2355 H       
  45 H45           -1.4991    -8.4457     0.0531 H       
@<TRIPOS>BOND
   1    1    2 ar
   2    1    6 ar
   3    1   30 1
   4    2    3 ar
   5    2   31 1
   6    3    4 ar
   7    3    7 1
   8    4    5 ar
   9    4   32 1
  10    5    6 ar
  11    5   26 1
  12    6   33 1
  13    7    8 1
  14    8    9 1
  15    8   34 1
  16    8   35 1
  17    9   10 1
  18    9   11 2
  19   10   13 2
  20   10   36 1
  21   11   12 1
  22   12   13 1
  23   12   14 1
  24   13   17 1
  25   14   15 1
  26   14   37 1
  27   14   38 1
  28   15   16 1
  29   15   39 1
  30   15   40 1
  31   16   17 1
  32   16   18 am
  33   17   41 1
  34   17   42 1
  35   18   19 1
  36   18   20 2
  37   19   21 ar
  38   19   24 ar
  39   21   25 ar
  40   21   43 1
  41   22   23 ar
  42   22   25 ar
  43   22   44 1
  44   23   24 ar
  45   23   28 1
  46   24   45 1
  47   25   27 1
  48   28   29 3

#	End of record

