#	Name: ASD01841042
#	Creating user name:	WinNT
#	Creation time:	15. 06. 2019 19:38

#	Modifying user name:	WinNT
#	Modification time:	15. 06. 2019 19:38

#	Program:	/corina/corina34_cracker 3.40 0067  02.08.2006

@<TRIPOS>MOLECULE
ASD01841042
  35   37    0    0    0
SMALL
NO_CHARGES


@<TRIPOS>ATOM
   1 C1            -0.0180     1.4725     0.0101 C.2     
   2 C2             0.0021    -0.0041     0.0020 C.ar    
   3 O3             1.0264     2.0946     0.0035 O.2     
   4 N4            -1.1942     2.1305     0.0193 N.am    
   5 S5            -2.6697     4.4995     0.0392 S.3     
   6 C6            -1.2130     3.5154     0.0269 C.2     
   7 N7            -0.1661     4.2648     0.0265 N.2     
   8 C8            -0.3466     5.6009     0.0350 C.ar    
   9 C9            -1.6946     5.9671     0.0432 C.ar    
  10 C10           -2.0608     7.3121     0.0521 C.ar    
  11 C11           -1.0962     8.2947     0.0525 C.ar    
  12 C12            0.2467     7.9489     0.0440 C.ar    
  13 C13            0.6285     6.6262     0.0364 C.ar    
  14 C14           -3.5190     7.6924     0.0609 C.3     
  15 O15            1.9490     6.3036     0.0290 O.3     
  16 C16            2.8814     7.3864     0.0310 C.3     
  17 C17            1.2194    -0.6881    -0.0133 C.ar    
  18 C18            1.2335    -2.0668    -0.0203 C.ar    
  19 C19            0.0425    -2.7751    -0.0127 C.ar    
  20 C20           -1.1717    -2.1011     0.0025 C.ar    
  21 C21           -1.1966    -0.7213     0.0155 C.ar    
  22 F22           -2.3296    -2.7970     0.0094 F       
  23 F23            0.0626    -4.1260    -0.0206 F       
  24 H24           -2.0275     1.6341     0.0205 H       
  25 H25           -1.3857     9.3352     0.0592 H       
  26 H26            0.9993     8.7236     0.0440 H       
  27 H27           -3.8658     7.7785     1.0907 H       
  28 H28           -3.6484     8.6480    -0.4471 H       
  29 H29           -4.0976     6.9257    -0.4544 H       
  30 H30            3.8972     6.9912     0.0245 H       
  31 H31            2.7253     8.0019    -0.8550 H       
  32 H32            2.7329     7.9922     0.9249 H       
  33 H33            2.1486    -0.1378    -0.0199 H       
  34 H34            2.1750    -2.5959    -0.0322 H       
  35 H35           -2.1408    -0.1971     0.0273 H       
@<TRIPOS>BOND
   1    1    2 1
   2    1    3 2
   3    1    4 am
   4    2   17 ar
   5    2   21 ar
   6    4    6 1
   7    4   24 1
   8    5    6 1
   9    5    9 1
  10    6    7 2
  11    7    8 1
  12    8    9 ar
  13    8   13 ar
  14    9   10 ar
  15   10   11 ar
  16   10   14 1
  17   11   12 ar
  18   11   25 1
  19   12   13 ar
  20   12   26 1
  21   13   15 1
  22   14   27 1
  23   14   28 1
  24   14   29 1
  25   15   16 1
  26   16   30 1
  27   16   31 1
  28   16   32 1
  29   17   18 ar
  30   17   33 1
  31   18   19 ar
  32   18   34 1
  33   19   20 ar
  34   19   23 1
  35   20   21 ar
  36   20   22 1
  37   21   35 1

#	End of record

