#	Name: ASD07300577
#	Creating user name:	WinNT
#	Creation time:	15. 06. 2019 21:10

#	Modifying user name:	WinNT
#	Modification time:	15. 06. 2019 21:10

#	Program:	/corina/corina34_cracker 3.40 0067  02.08.2006

@<TRIPOS>MOLECULE
ASD07300577
  50   53    0    0    0
SMALL
NO_CHARGES


@<TRIPOS>ATOM
   1 C1            -0.0580     1.3776    -0.0494 C.ar    
   2 C2            -0.0342    -0.0100    -0.0529 C.ar    
   3 C3             1.2009    -0.6649    -0.0470 C.ar    
   4 C4             2.3661     0.1166    -0.0379 C.ar    
   5 C5             2.2534     1.4885    -0.0350 C.ar    
   6 N6             1.0693     2.0741    -0.0407 N.ar    
   7 N7            -1.2782     2.0444    -0.0609 N.pl3   
   8 C8             1.8401    -4.2217    -0.5027 C.2     
   9 C9             2.5660    -5.2413    -1.1682 C.2     
  10 N10            2.0991    -2.9148    -0.8231 N.pl3   
  11 N11            3.4666    -4.9141    -2.0730 N.2     
  12 C12            3.7110    -3.6363    -2.3776 C.2     
  13 C13            3.0456    -2.6321    -1.7706 C.2     
  14 N14            0.9021    -4.2470     0.4314 N.2     
  15 C15            0.5358    -3.0048     0.7278 C.2     
  16 C16            1.2770    -2.1394    -0.0499 C.2     
  17 N17            2.3304    -6.5741    -0.8690 N.pl3   
  18 C18            2.9782    -7.6489    -1.6373 C.3     
  19 C19            3.6280    -8.6250    -0.6499 C.3     
  20 O20            2.6571    -9.0323     0.3172 O.3     
  21 C21            2.1509    -7.9657     1.1234 C.3     
  22 C22            1.4298    -6.9558     0.2304 C.3     
  23 C23           -0.5060    -2.6091     1.7423 C.3     
  24 C24           -2.5292     1.2823    -0.0767 C.3     
  25 C25           -3.6515     2.1319     0.5230 C.3     
  26 C26           -2.8837     0.9135    -1.5186 C.3     
  27 H27           -0.9548    -0.5746    -0.0596 H       
  28 H28            3.3390    -0.3522    -0.0328 H       
  29 H29            3.1467     2.0954    -0.0280 H       
  30 H30           -1.3010     3.0141    -0.0586 H       
  31 H31            4.4558    -3.4029    -3.1240 H       
  32 H32            3.2592    -1.6063    -2.0321 H       
  33 H33            2.2327    -8.1734    -2.2351 H       
  34 H34            3.7411    -7.2250    -2.2903 H       
  35 H35            3.9935    -9.4989    -1.1891 H       
  36 H36            4.4598    -8.1331    -0.1458 H       
  37 H37            1.4538    -8.3652     1.8599 H       
  38 H38            2.9774    -7.4713     1.6339 H       
  39 H39            1.1679    -6.0730     0.8137 H       
  40 H40            0.5258    -7.4093    -0.1761 H       
  41 H41           -0.0331    -2.4736     2.7149 H       
  42 H42           -0.9772    -1.6758     1.4341 H       
  43 H43           -1.2614    -3.3919     1.8115 H       
  44 H44           -2.4081     0.3728     0.5117 H       
  45 H45           -3.7727     3.0414    -0.0653 H       
  46 H46           -4.5823     1.5649     0.5113 H       
  47 H47           -3.3990     2.3947     1.5503 H       
  48 H48           -3.8145     0.3465    -1.5303 H       
  49 H49           -3.0049     1.8230    -2.1070 H       
  50 H50           -2.0842     0.3082    -1.9458 H       
@<TRIPOS>BOND
   1    1    2 ar
   2    1    6 ar
   3    1    7 1
   4    2    3 ar
   5    2   27 1
   6    3    4 ar
   7    3   16 1
   8    4    5 ar
   9    4   28 1
  10    5    6 ar
  11    5   29 1
  12    7   24 1
  13    7   30 1
  14    8    9 1
  15    8   10 1
  16    8   14 2
  17    9   11 2
  18    9   17 1
  19   10   13 1
  20   10   16 1
  21   11   12 1
  22   12   13 2
  23   12   31 1
  24   13   32 1
  25   14   15 1
  26   15   16 2
  27   15   23 1
  28   17   18 1
  29   17   22 1
  30   18   19 1
  31   18   33 1
  32   18   34 1
  33   19   20 1
  34   19   35 1
  35   19   36 1
  36   20   21 1
  37   21   22 1
  38   21   37 1
  39   21   38 1
  40   22   39 1
  41   22   40 1
  42   23   41 1
  43   23   42 1
  44   23   43 1
  45   24   25 1
  46   24   26 1
  47   24   44 1
  48   25   45 1
  49   25   46 1
  50   25   47 1
  51   26   48 1
  52   26   49 1
  53   26   50 1

#	End of record

