#	Name: ASD05143297
#	Creating user name:	WinNT
#	Creation time:	15. 06. 2019 20:57

#	Modifying user name:	WinNT
#	Modification time:	15. 06. 2019 20:57

#	Program:	/corina/corina34_cracker 3.40 0067  02.08.2006

@<TRIPOS>MOLECULE
ASD05143297
  41   43    0    0    0
SMALL
NO_CHARGES


@<TRIPOS>ATOM
   1 C1             0.3300     1.2316     0.2635 C.2     
   2 N2             0.3298    -0.0347    -0.1034 N.2     
   3 S3            -1.3057    -0.4866    -0.1960 S.3     
   4 C4            -1.9073     1.0597     0.2662 C.2     
   5 N5            -0.8409     1.8037     0.4625 N.2     
   6 N6            -3.2299     1.4371     0.4058 N.pl3   
   7 C7            -3.5464     2.7096     0.8916 C.ar    
   8 C8            -4.8661     3.0358     1.1834 C.ar    
   9 C9            -5.1747     4.2942     1.6632 C.ar    
  10 C10           -4.1726     5.2285     1.8527 C.ar    
  11 C11           -2.8595     4.9070     1.5630 C.ar    
  12 C12           -2.5427     3.6485     1.0892 C.ar    
  13 C13            1.4228    -0.8236    -0.3581 C.ar    
  14 C14            1.6098    -2.0120     0.3499 C.ar    
  15 C15            2.3499    -0.4443    -1.3303 C.ar    
  16 C16            3.4469    -1.2421    -1.5814 C.ar    
  17 C17            3.6293    -2.4160    -0.8720 C.ar    
  18 C18            2.7112    -2.8007     0.0890 C.ar    
  19 C19            1.5952     1.9796     0.4505 C.ar    
  20 C20            1.6490     3.3449     0.1713 C.ar    
  21 C21            2.7353     1.3225     0.9120 C.ar    
  22 C22            3.9106     2.0246     1.0847 C.ar    
  23 C23            3.9591     3.3779     0.8014 C.ar    
  24 C24            2.8300     4.0363     0.3479 C.ar    
  25 Cl25          -6.1243     1.8638     0.9446 Cl      
  26 H26           -3.9384     0.8191     0.1668 H       
  27 H27           -6.1995     4.5487     1.8901 H       
  28 H28           -4.4164     6.2116     2.2275 H       
  29 H29           -2.0797     5.6393     1.7115 H       
  30 H30           -1.5166     3.3985     0.8633 H       
  31 H31            0.8941    -2.3132     1.1005 H       
  32 H32            2.2084     0.4716    -1.8849 H       
  33 H33            4.1647    -0.9500    -2.3336 H       
  34 H34            4.4899    -3.0370    -1.0725 H       
  35 H35            2.8595    -3.7181     0.6392 H       
  36 H36            0.7682     3.8599    -0.1828 H       
  37 H37            2.6984     0.2662     1.1341 H       
  38 H38            4.7942     1.5168     1.4420 H       
  39 H39            4.8811     3.9233     0.9384 H       
  40 H40            2.8740     5.0928     0.1284 H       
  41 Br41           9.8811    11.2116     7.2275 Br      
@<TRIPOS>BOND
   1    1    2 2
   2    1   19 1
   3    1    5 1
   4    2    3 1
   5    2   13 1
   6    3    4 1
   7    4    5 2
   8    4    6 1
   9    6    7 1
  10    6   26 1
  11    7    8 ar
  12    7   12 ar
  13    8    9 ar
  14    8   25 1
  15    9   10 ar
  16    9   27 1
  17   10   11 ar
  18   10   28 1
  19   11   12 ar
  20   11   29 1
  21   12   30 1
  22   13   14 ar
  23   13   15 ar
  24   14   18 ar
  25   14   31 1
  26   15   16 ar
  27   15   32 1
  28   16   17 ar
  29   16   33 1
  30   17   18 ar
  31   17   34 1
  32   18   35 1
  33   19   20 ar
  34   19   21 ar
  35   20   24 ar
  36   20   36 1
  37   21   22 ar
  38   21   37 1
  39   22   23 ar
  40   22   38 1
  41   23   24 ar
  42   23   39 1
  43   24   40 1

#	End of record

