#	Name: ASD05430735
#	Creating user name:	WinNT
#	Creation time:	15. 06. 2019 21:00

#	Modifying user name:	WinNT
#	Modification time:	15. 06. 2019 21:00

#	Program:	/corina/corina34_cracker 3.40 0067  02.08.2006

@<TRIPOS>MOLECULE
ASD05430735
  66   71    0    0    0
SMALL
NO_CHARGES


@<TRIPOS>ATOM
   1 C1            -0.1559     1.4387     0.4452 C.2     
   2 C2            -0.1015     0.0700     0.1396 C.2     
   3 N3            -1.2691    -0.6663     0.0754 N.pl3   
   4 C4            -2.3599    -0.1096     0.7314 C.2     
   5 N5            -2.5247     1.2591     0.7741 N.am    
   6 C6            -1.4494     2.0882     0.6863 C.2     
   7 O7            -1.5538     3.2954     0.8042 O.2     
   8 C8            -3.8688     1.8251     0.9126 C.3     
   9 C9            -3.9746     2.5677     2.2461 C.3     
  10 C10           -4.1285     2.7856    -0.2192 C.ar    
  11 C11           -3.6793     2.4904    -1.4924 C.ar    
  12 C12           -3.9175     3.3714    -2.5327 C.ar    
  13 C13           -4.6054     4.5480    -2.2985 C.ar    
  14 C14           -5.0555     4.8438    -1.0230 C.ar    
  15 C15           -4.8208     3.9588     0.0155 C.ar    
  16 N16            1.1006     1.9031     0.4466 N.2     
  17 C17            1.9216     0.9153     0.1610 C.2     
  18 N18            1.1950    -0.2385    -0.0357 N.pl3   
  19 C19            3.3926     1.0263     0.0656 C.ar    
  20 C20            4.0167     2.2548     0.2872 C.ar    
  21 C21            5.3930     2.3541     0.1969 C.ar    
  22 C22            6.1536     1.2284    -0.1149 C.ar    
  23 C23            5.5317     0.0068    -0.3356 C.ar    
  24 C24            4.1603    -0.0989    -0.2407 C.ar    
  25 N25            7.5491     1.3299    -0.2063 N.pl3   
  26 C26            8.2466     2.2528    -0.9178 C.2     
  27 N27            9.5218     2.0256    -0.7561 N.2     
  28 C28            9.6856     0.9671     0.0511 C.2     
  29 C29            8.4671     0.5200     0.4105 C.2     
  30 C30           11.0050     0.3822     0.4848 C.3     
  31 F31           -5.7276     5.9929    -0.7929 F       
  32 Cl32          -3.3523     2.9998    -4.1315 Cl      
  33 C33           -1.3512    -1.9448    -0.6353 C.3     
  34 N34           -3.2332    -0.8856     1.3098 N.2     
  35 C35           -2.9894    -2.3277     1.3940 C.3     
  36 C36           -2.1828    -2.8392     2.5893 C.3     
  37 C37           -3.6890    -3.0981     2.5156 C.3     
  38 O38            6.0041     3.5495     0.4118 O.3     
  39 C39            5.1628     4.6608     0.7265 C.3     
  40 H40           -4.6057     1.0225     0.8843 H       
  41 H41           -3.7868     1.8729     3.0648 H       
  42 H42           -3.2377     3.3704     2.2745 H       
  43 H43           -4.9747     2.9888     2.3492 H       
  44 H44           -3.1417     1.5718    -1.6755 H       
  45 H45           -4.7912     5.2359    -3.1101 H       
  46 H46           -5.1719     4.1887     1.0107 H       
  47 H47            1.5528    -1.1120    -0.2590 H       
  48 H48            3.4260     3.1262     0.5284 H       
  49 H49            6.1238    -0.8635    -0.5774 H       
  50 H50            3.6791    -1.0503    -0.4125 H       
  51 H51            7.8179     3.0423    -1.5174 H       
  52 H52            8.2541    -0.3196     1.0556 H       
  53 H53           11.3311     0.8648     1.4061 H       
  54 H54           10.8892    -0.6879     0.6565 H       
  55 H55           11.7491     0.5467    -0.2946 H       
  56 H56           -1.1330    -2.7592     0.0555 H       
  57 H57           -2.3550    -2.0713    -1.0408 H       
  58 H58           -0.6265    -1.9550    -1.4495 H       
  59 H59           -2.8546    -2.8382     0.4404 H       
  60 H60           -1.5178    -3.6865     2.4221 H       
  61 H61           -1.8336    -2.1028     3.3130 H       
  62 H62           -4.3306    -2.5320     3.1908 H       
  63 H63           -4.0148    -4.1157     2.2999 H       
  64 H64            5.7756     5.5502     0.8735 H       
  65 H65            4.4649     4.8318    -0.0931 H       
  66 H66            4.6062     4.4482     1.6392 H       
@<TRIPOS>BOND
   1    1    2 2
   2    1   16 1
   3    1    6 1
   4    2    3 1
   5    2   18 1
   6    3    4 1
   7    3   33 1
   8    4    5 1
   9    4   34 2
  10    5    6 am
  11    5    8 1
  12    6    7 2
  13    8    9 1
  14    8   10 1
  15    8   40 1
  16    9   41 1
  17    9   42 1
  18    9   43 1
  19   10   11 ar
  20   10   15 ar
  21   11   12 ar
  22   11   44 1
  23   12   13 ar
  24   12   32 1
  25   13   14 ar
  26   13   45 1
  27   14   15 ar
  28   14   31 1
  29   15   46 1
  30   16   17 2
  31   17   18 1
  32   17   19 1
  33   18   47 1
  34   19   20 ar
  35   19   24 ar
  36   20   21 ar
  37   20   48 1
  38   21   22 ar
  39   21   38 1
  40   22   23 ar
  41   22   25 1
  42   23   24 ar
  43   23   49 1
  44   24   50 1
  45   25   26 1
  46   25   29 1
  47   26   27 2
  48   26   51 1
  49   27   28 1
  50   28   29 2
  51   28   30 1
  52   29   52 1
  53   30   53 1
  54   30   54 1
  55   30   55 1
  56   33   56 1
  57   33   57 1
  58   33   58 1
  59   34   35 1
  60   35   36 1
  61   35   37 1
  62   35   59 1
  63   36   37 1
  64   36   60 1
  65   36   61 1
  66   37   62 1
  67   37   63 1
  68   38   39 1
  69   39   64 1
  70   39   65 1
  71   39   66 1

#	End of record

