#	Name: ASD01028260
#	Creating user name:	WinNT
#	Creation time:	15. 06. 2019 18:56

#	Modifying user name:	WinNT
#	Modification time:	15. 06. 2019 18:56

#	Program:	/corina/corina34_cracker 3.40 0067  02.08.2006

@<TRIPOS>MOLECULE
ASD01028260
  36   39    0    0    0
SMALL
NO_CHARGES


@<TRIPOS>ATOM
   1 C1            -0.0184     1.5028     0.0103 C.3     
   2 C2             0.0021    -0.0041     0.0020 C.2     
   3 N3             0.0235    -0.8148     1.0951 N.pl3   
   4 C4             0.0358    -2.0995     0.6104 C.2     
   5 N5             0.0219    -2.0107    -0.7099 N.2     
   6 N6            -0.0032    -0.7720    -1.0570 N.2     
   7 C7             0.0334    -0.5799     2.4376 C.2     
   8 C8             0.0557    -1.6197     3.3186 C.2     
   9 C9             0.0693    -2.9534     2.8417 C.2     
  10 C10            0.0586    -3.1885     1.5049 C.2     
  11 C11            0.0663    -1.3550     4.7740 C.2     
  12 C12            1.3954     2.0244    -0.0004 C.ar    
  13 C13            2.0315     2.2697    -1.2033 C.ar    
  14 C14            3.3275     2.7479    -1.2158 C.ar    
  15 C15            3.9908     2.9819    -0.0200 C.ar    
  16 C16            3.3504     2.7350     1.1856 C.ar    
  17 C17            2.0524     2.2622     1.1928 C.ar    
  18 O18            5.2659     3.4519    -0.0297 O.3     
  19 C19            1.0769    -1.6562     5.6362 C.2     
  20 C20            0.6756    -1.2355     6.9152 C.2     
  21 C21           -0.5561    -0.6944     6.8013 C.2     
  22 N22           -0.9368    -0.7578     5.4928 N.pl3   
  23 H23           -0.5455     1.8639    -0.8728 H       
  24 H24           -0.5286     1.8543     0.9071 H       
  25 H25            0.0238     0.4355     2.8053 H       
  26 H26            0.0873    -3.7788     3.5380 H       
  27 H27            0.0685    -4.2012     1.1299 H       
  28 H28            1.5148     2.0870    -2.1339 H       
  29 H29            3.8240     2.9390    -2.1557 H       
  30 H30            3.8647     2.9164     2.1178 H       
  31 H31            1.5534     2.0698     2.1311 H       
  32 H32            5.3295     4.4168    -0.0253 H       
  33 H33            2.0134    -2.1311     5.3834 H       
  34 H34            1.2492    -1.3283     7.8256 H       
  35 H35           -1.1399    -0.2782     7.6090 H       
  36 H36           -1.7788    -0.4386     5.1322 H       
@<TRIPOS>BOND
   1    1    2 1
   2    1   12 1
   3    1   23 1
   4    1   24 1
   5    2    3 1
   6    2    6 2
   7    3    4 1
   8    3    7 1
   9    4    5 2
  10    4   10 1
  11    5    6 1
  12    7    8 2
  13    7   25 1
  14    8    9 1
  15    8   11 1
  16    9   10 2
  17    9   26 1
  18   10   27 1
  19   11   19 2
  20   11   22 1
  21   12   13 ar
  22   12   17 ar
  23   13   14 ar
  24   13   28 1
  25   14   15 ar
  26   14   29 1
  27   15   16 ar
  28   15   18 1
  29   16   17 ar
  30   16   30 1
  31   17   31 1
  32   18   32 1
  33   19   20 1
  34   19   33 1
  35   20   21 2
  36   20   34 1
  37   21   22 1
  38   21   35 1
  39   22   36 1

#	End of record

