#	Name: ASD01150918
#	Creating user name:	WinNT
#	Creation time:	15. 06. 2019 19:05

#	Modifying user name:	WinNT
#	Modification time:	15. 06. 2019 19:05

#	Program:	/corina/corina34_cracker 3.40 0067  02.08.2006

@<TRIPOS>MOLECULE
ASD01150918
  49   51    0    0    0
SMALL
NO_CHARGES


@<TRIPOS>ATOM
   1 C1            -0.0180     1.4730     0.0101 C.ar    
   2 C2             0.0021    -0.0041     0.0020 C.2     
   3 N3            -1.1558    -0.6938     0.0094 N.am    
   4 O4             1.0629    -0.5975    -0.0113 O.2     
   5 C5            -1.1370    -2.0836     0.0017 C.2     
   6 N6            -0.0478    -2.8559    -0.0124 N.2     
   7 C7            -0.3959    -4.1265    -0.0155 C.2     
   8 N8            -1.7505    -4.2220    -0.0034 N.pl3   
   9 C9            -2.2479    -2.9178     0.0135 C.2     
  10 C10           -3.6019    -2.5267     0.0308 C.2     
  11 O11           -4.5752    -3.4630     0.0322 O.3     
  12 O12           -3.8941    -1.3445     0.0444 O.2     
  13 C13           -5.9254    -2.9952     0.0502 C.3     
  14 C14           -6.8796    -4.1912     0.0491 C.3     
  15 S15            0.7214    -5.4889    -0.0334 S.3     
  16 C16            2.2989    -4.6015    -0.0433 C.3     
  17 C17           -2.5386    -5.4569    -0.0027 C.3     
  18 C18           -2.7960    -5.8878     1.4183 C.ar    
  19 C19           -3.9232    -5.4414     2.0824 C.ar    
  20 C20           -4.1594    -5.8365     3.3859 C.ar    
  21 C21           -3.2685    -6.6784     4.0250 C.ar    
  22 C22           -2.1418    -7.1255     3.3606 C.ar    
  23 C23           -1.9079    -6.7339     2.0557 C.ar    
  24 C24            1.1804     2.1913     0.0026 C.ar    
  25 C25            1.1534     3.5725     0.0103 C.ar    
  26 C26           -0.0558     4.2430     0.0259 C.ar    
  27 C27           -1.2464     3.5369     0.0335 C.ar    
  28 C28           -1.2348     2.1581     0.0196 C.ar    
  29 Cl29           2.6991     1.3505    -0.0159 Cl      
  30 H30           -2.0023    -0.2203     0.0200 H       
  31 H31           -6.0913    -2.3988     0.9473 H       
  32 H32           -6.1095    -2.3827    -0.8324 H       
  33 H33           -6.6955    -4.8036     0.9318 H       
  34 H34           -7.9094    -3.8343     0.0629 H       
  35 H35           -6.7136    -4.7876    -0.8480 H       
  36 H36            2.3554    -3.9707    -0.9305 H       
  37 H37            2.3720    -3.9804     0.8494 H       
  38 H38            3.1193    -5.3191    -0.0549 H       
  39 H39           -3.4889    -5.2818    -0.5071 H       
  40 H40           -1.9885    -6.2393    -0.5256 H       
  41 H41           -4.6192    -4.7836     1.5831 H       
  42 H42           -5.0396    -5.4872     3.9050 H       
  43 H43           -3.4526    -6.9866     5.0436 H       
  44 H44           -1.4456    -7.7830     3.8601 H       
  45 H45           -1.0277    -7.0832     1.5365 H       
  46 H46            2.0785     4.1297     0.0044 H       
  47 H47           -0.0714     5.3229     0.0326 H       
  48 H48           -2.1870     4.0674     0.0461 H       
  49 H49           -2.1648     1.6090     0.0252 H       
@<TRIPOS>BOND
   1    1    2 1
   2    1   24 ar
   3    1   28 ar
   4    2    3 am
   5    2    4 2
   6    3    5 1
   7    3   30 1
   8    5    6 1
   9    5    9 2
  10    6    7 2
  11    7    8 1
  12    7   15 1
  13    8    9 1
  14    8   17 1
  15    9   10 1
  16   10   11 1
  17   10   12 2
  18   11   13 1
  19   13   14 1
  20   13   31 1
  21   13   32 1
  22   14   33 1
  23   14   34 1
  24   14   35 1
  25   15   16 1
  26   16   36 1
  27   16   37 1
  28   16   38 1
  29   17   18 1
  30   17   39 1
  31   17   40 1
  32   18   19 ar
  33   18   23 ar
  34   19   20 ar
  35   19   41 1
  36   20   21 ar
  37   20   42 1
  38   21   22 ar
  39   21   43 1
  40   22   23 ar
  41   22   44 1
  42   23   45 1
  43   24   25 ar
  44   24   29 1
  45   25   26 ar
  46   25   46 1
  47   26   27 ar
  48   26   47 1
  49   27   28 ar
  50   27   48 1
  51   28   49 1

#	End of record

