#	Name: ASD01900125
#	Creating user name:	WinNT
#	Creation time:	15. 06. 2019 19:51

#	Modifying user name:	WinNT
#	Modification time:	15. 06. 2019 19:51

#	Program:	/corina/corina34_cracker 3.40 0067  02.08.2006

@<TRIPOS>MOLECULE
ASD01900125
  31   32    0    0    0
SMALL
NO_CHARGES


@<TRIPOS>ATOM
   1 C1             0.0046     1.3792     0.2092 C.ar    
   2 C2             0.0333     0.0052     0.3016 C.ar    
   3 C3             1.2353    -0.6576     0.4983 C.ar    
   4 C4             2.4158     0.0529     0.6035 C.ar    
   5 C5             2.4045     1.4364     0.5132 C.ar    
   6 C6             1.1912     2.1097     0.3140 C.ar    
   7 O7             3.5625     2.1354     0.6172 O.3     
   8 N8            -0.0013     4.2245     0.0238 N.am    
   9 C9             1.1673     3.5809     0.2154 C.2     
  10 C10           -0.0385     5.6244     0.0281 C.ar    
  11 C11            1.0227     6.3492    -0.4982 C.ar    
  12 C12            0.9850     7.7295    -0.4941 C.ar    
  13 C13           -0.1125     8.3922     0.0357 C.ar    
  14 C14           -1.1728     7.6689     0.5620 C.ar    
  15 C15           -1.1391     6.2885     0.5534 C.ar    
  16 O16            2.2019     4.2134     0.3070 O.2     
  17 O17           -0.1489     9.7515     0.0394 O.3     
  18 C18           -1.3096    10.3679     0.6005 C.3     
  19 Br19           1.2592    -2.5443     0.6238 Br      
  20 F20           -1.4398     9.9847     1.9397 F       
  21 F21           -1.1821    11.7589     0.5238 F       
  22 F22           -2.4432     9.9634    -0.1126 F       
  23 H23           -0.9333     1.8909     0.0516 H       
  24 H24           -0.8844    -0.5584     0.2209 H       
  25 H25            3.3482    -0.4701     0.7567 H       
  26 H26            4.0106     2.2819    -0.2270 H       
  27 H27           -0.8165     3.7181    -0.1170 H       
  28 H28            1.8773     5.8334    -0.9104 H       
  29 H29            1.8104     8.2933    -0.9031 H       
  30 H30           -2.0268     8.1855     0.9746 H       
  31 H31           -1.9667     5.7254     0.9589 H       
@<TRIPOS>BOND
   1    1    2 ar
   2    1    6 ar
   3    1   23 1
   4    2    3 ar
   5    2   24 1
   6    3    4 ar
   7    3   19 1
   8    4    5 ar
   9    4   25 1
  10    5    7 1
  11    5    6 ar
  12    6    9 1
  13    7   26 1
  14    8    9 am
  15    8   10 1
  16    8   27 1
  17    9   16 2
  18   10   11 ar
  19   10   15 ar
  20   11   12 ar
  21   11   28 1
  22   12   13 ar
  23   12   29 1
  24   13   14 ar
  25   13   17 1
  26   14   15 ar
  27   14   30 1
  28   15   31 1
  29   17   18 1
  30   18   20 1
  31   18   21 1
  32   18   22 1

#	End of record

