#	Name: ASD01815092
#	Creating user name:	WinNT
#	Creation time:	15. 06. 2019 19:33

#	Modifying user name:	WinNT
#	Modification time:	15. 06. 2019 19:33

#	Program:	/corina/corina34_cracker 3.40 0067  02.08.2006

@<TRIPOS>MOLECULE
ASD01815092
  49   53    0    0    0
SMALL
NO_CHARGES


@<TRIPOS>ATOM
   1 C1             8.0145    -1.1911     2.4748 C.2     
   2 C2             7.0984    -0.5056     1.6656 C.2     
   3 C3             5.9733    -1.1454     1.2344 C.2     
   4 C4             5.7521    -2.4812     1.6090 C.2     
   5 N5             6.6633    -3.1263     2.4004 N.am    
   6 C6             7.7844    -2.4767     2.8250 C.2     
   7 C7             4.5966    -3.1409     1.1673 C.2     
   8 C8             4.3719    -4.4384     1.5258 C.2     
   9 C9             5.3114    -5.0988     2.3392 C.2     
  10 C10            6.4634    -4.4081     2.7676 C.2     
  11 O11            7.2829    -4.9727     3.4723 O.2     
  12 C12            5.0936    -6.4910     2.7384 C.2     
  13 O13            5.9980    -7.1184     3.5182 O.3     
  14 O14            4.0972    -7.0815     2.3667 O.2     
  15 C15            3.6021    -2.4170     0.2968 C.3     
  16 N16            3.8957    -2.6929    -1.1159 N.3     
  17 C17            2.8986    -2.0457    -2.0022 C.3     
  18 C18            3.8142    -4.1596    -1.4041 C.3     
  19 C19            2.3996    -4.5705    -0.8904 C.3     
  20 N20            1.4486    -3.9667    -1.8546 N.3     
  21 C21            2.2839    -3.2097    -2.8396 C.3     
  22 C22            0.5479    -3.1182    -1.2052 C.ar    
  23 C23           -0.0304    -2.0594    -1.8934 C.ar    
  24 C24           -0.9201    -1.2224    -1.2491 C.ar    
  25 C25           -1.2357    -1.4379     0.0809 C.ar    
  26 C26           -0.6607    -2.4918     0.7691 C.ar    
  27 C27            0.2250    -3.3356     0.1281 C.ar    
  28 C28            3.5397    -4.1466    -2.9507 C.3     
  29 Cl29          -2.3545    -0.3839     0.8877 Cl      
  30 H30            8.9095    -0.6923     2.8161 H       
  31 H31            7.2814     0.5214     1.3859 H       
  32 H32            5.2585    -0.6293     0.6107 H       
  33 H33            8.4971    -2.9952     3.4492 H       
  34 H34            3.4834    -4.9522     1.1895 H       
  35 H35            5.8109    -8.0369     3.7556 H       
  36 H36            2.5949    -2.7608     0.5324 H       
  37 H37            3.6720    -1.3447     0.4797 H       
  38 H38            2.1257    -1.5569    -1.4090 H       
  39 H39            3.3865    -1.3244    -2.6577 H       
  40 H40            4.6492    -4.7653    -1.0521 H       
  41 H41            2.2982    -5.6557    -0.8879 H       
  42 H42            2.2294    -4.1713     0.1095 H       
  43 H43            1.7909    -2.9260    -3.7694 H       
  44 H44            0.2158    -1.8905    -2.9313 H       
  45 H45           -1.3698    -0.3987    -1.7836 H       
  46 H46           -0.9082    -2.6573     1.8073 H       
  47 H47            0.6732    -4.1582     0.6656 H       
  48 H48            4.3524    -3.6855    -3.5120 H       
  49 H49            3.2869    -5.1347    -3.3350 H       
@<TRIPOS>BOND
   1    1    2 1
   2    1    6 2
   3    1   30 1
   4    2    3 2
   5    2   31 1
   6    3    4 1
   7    3   32 1
   8    4    5 1
   9    4    7 2
  10    5    6 1
  11    5   10 am
  12    6   33 1
  13    7    8 1
  14    7   15 1
  15    8    9 2
  16    8   34 1
  17    9   10 1
  18    9   12 1
  19   10   11 2
  20   12   13 1
  21   12   14 2
  22   13   35 1
  23   15   16 1
  24   15   36 1
  25   15   37 1
  26   16   18 1
  27   16   17 1
  28   17   21 1
  29   17   38 1
  30   17   39 1
  31   18   19 1
  32   18   28 1
  33   18   40 1
  34   19   20 1
  35   19   41 1
  36   19   42 1
  37   20   21 1
  38   20   22 1
  39   21   28 1
  40   21   43 1
  41   22   23 ar
  42   22   27 ar
  43   23   24 ar
  44   23   44 1
  45   24   25 ar
  46   24   45 1
  47   25   26 ar
  48   25   29 1
  49   26   27 ar
  50   26   46 1
  51   27   47 1
  52   28   48 1
  53   28   49 1

#	End of record

