#	Name: ASD08170329
#	Creating user name:	WinNT
#	Creation time:	15. 06. 2019 21:17

#	Modifying user name:	WinNT
#	Modification time:	15. 06. 2019 21:17

#	Program:	/corina/corina34_cracker 3.40 0067  02.08.2006

@<TRIPOS>MOLECULE
ASD08170329
  77   80    0    0    0
SMALL
NO_CHARGES


@<TRIPOS>ATOM
   1 C1            -0.0184     1.5028     0.0103 C.3     
   2 C2             0.0021    -0.0041     0.0020 C.2     
   3 N3            -1.1558    -0.6938     0.0094 N.am    
   4 C4            -1.1370    -2.0844     0.0017 C.2     
   5 S5            -2.5152    -3.1017     0.0094 S.3     
   6 C6            -1.4518    -4.5090    -0.0094 C.2     
   7 C7            -1.8869    -5.9518    -0.0140 C.3     
   8 C8            -2.0202    -6.4489     1.4268 C.3     
   9 C9            -2.6447    -8.5871     3.1874 C.3     
  10 C10           -3.0819   -10.0437     3.3552 C.3     
  11 C11           -3.1656   -10.3772     4.8224 C.2     
  12 S12           -1.8597   -11.0187     5.8197 S.3     
  13 C13           -2.9181   -11.0262     7.1667 C.2     
  14 N14           -2.5899   -11.4401     8.4532 N.am    
  15 C15           -3.5160   -11.3978     9.4315 C.2     
  16 C16           -3.1604   -11.8463    10.8256 C.3     
  17 N17           -0.0715    -2.8270    -0.0181 N.2     
  18 N18           -0.2299    -4.0795    -0.0190 N.2     
  19 N19           -4.2078   -10.2392     5.5790 N.2     
  20 N20           -4.0777   -10.5805     6.7875 N.2     
  21 O21           -4.6355   -10.9987     9.1900 O.2     
  22 O22            1.0605    -0.5961    -0.0113 O.2     
  23 S23           -2.5439    -8.1857     1.4212 S.3     
  24 C24           -2.0332   -10.9971    11.3543 C.ar    
  25 C25           -0.7237     1.9888     1.2502 C.ar    
  26 C26           -1.8595     2.7688     1.1384 C.ar    
  27 C27           -0.8367   -11.5857    11.7188 C.ar    
  28 C28           -2.5065     3.2146     2.2757 C.ar    
  29 C29           -2.0180     2.8801     3.5248 C.ar    
  30 C30           -0.8828     2.0993     3.6366 C.ar    
  31 C31           -0.2382     1.6498     2.4993 C.ar    
  32 C32           -2.1938    -9.6290    11.4694 C.ar    
  33 C33           -1.1599    -8.8501    11.9543 C.ar    
  34 C34            0.0345    -9.4394    12.3246 C.ar    
  35 C35            0.1972   -10.8068    12.2038 C.ar    
  36 C36            1.4170     2.0324    -0.0006 C.3     
  37 O37            1.3980     3.4800    -0.1119 O.3     
  38 C38            2.5856     4.1050    -0.1352 C.2     
  39 C39            2.6448     5.6065    -0.2491 C.3     
  40 O40            3.6073     3.4638    -0.0649 O.2     
  41 C41           -4.3810   -11.6979    11.7360 C.3     
  42 O42           -4.0750   -12.2394    13.0481 O.3     
  43 C43           -5.0477   -12.1859    13.9715 C.2     
  44 C44           -4.8031   -12.7286    15.3559 C.3     
  45 O45           -6.1194   -11.7027    13.6927 O.2     
  46 H46           -0.5455     1.8639    -0.8728 H       
  47 H47           -2.0023    -0.2203     0.0200 H       
  48 H48           -2.8488    -6.0397    -0.5192 H       
  49 H49           -1.1447    -6.5534    -0.5387 H       
  50 H50           -1.0584    -6.3611     1.9319 H       
  51 H51           -2.7624    -5.8473     1.9515 H       
  52 H52           -3.3713    -7.9320     3.6680 H       
  53 H53           -1.6672    -8.4458     3.6485 H       
  54 H54           -4.0594   -10.1851     2.8941 H       
  55 H55           -2.3553   -10.6988     2.8745 H       
  56 H56           -1.6946   -11.7592     8.6464 H       
  57 H57           -2.8488   -12.8906    10.8029 H       
  58 H58           -2.2411     3.0302     0.1625 H       
  59 H59           -0.7098   -12.6541    11.6251 H       
  60 H60           -3.3934     3.8247     2.1883 H       
  61 H61           -2.5231     3.2290     4.4134 H       
  62 H62           -0.5009     1.8382     4.6126 H       
  63 H63            0.6487     1.0398     2.5867 H       
  64 H64           -3.1269    -9.1686    11.1801 H       
  65 H65           -1.2851    -7.7811    12.0436 H       
  66 H66            0.8424    -8.8308    12.7032 H       
  67 H67            1.1303   -11.2673    12.4931 H       
  68 H68            1.9171     1.7457     0.9246 H       
  69 H69            1.9538     1.6096    -0.8498 H       
  70 H70            1.6324     6.0071    -0.3008 H       
  71 H71            3.1540     6.0173     0.6227 H       
  72 H72            3.1907     5.8812    -1.1516 H       
  73 H73           -4.6385   -10.6429    11.8294 H       
  74 H74           -5.2229   -12.2407    11.3063 H       
  75 H75           -3.9737   -12.1910    15.8156 H       
  76 H76           -5.7003   -12.5985    15.9610 H       
  77 H77           -4.5581   -13.7889    15.2925 H       
@<TRIPOS>BOND
   1    1    2 1
   2    1   36 1
   3    1   25 1
   4    1   46 1
   5    2    3 am
   6    2   22 2
   7    3    4 1
   8    3   47 1
   9    4    5 1
  10    4   17 2
  11    5    6 1
  12    6    7 1
  13    6   18 2
  14    7    8 1
  15    7   48 1
  16    7   49 1
  17    8   23 1
  18    8   50 1
  19    8   51 1
  20    9   10 1
  21    9   23 1
  22    9   52 1
  23    9   53 1
  24   10   11 1
  25   10   54 1
  26   10   55 1
  27   11   12 1
  28   11   19 2
  29   12   13 1
  30   13   14 1
  31   13   20 2
  32   14   15 am
  33   14   56 1
  34   15   16 1
  35   15   21 2
  36   16   24 1
  37   16   41 1
  38   16   57 1
  39   17   18 1
  40   19   20 1
  41   24   27 ar
  42   24   32 ar
  43   25   26 ar
  44   25   31 ar
  45   26   28 ar
  46   26   58 1
  47   27   35 ar
  48   27   59 1
  49   28   29 ar
  50   28   60 1
  51   29   30 ar
  52   29   61 1
  53   30   31 ar
  54   30   62 1
  55   31   63 1
  56   32   33 ar
  57   32   64 1
  58   33   34 ar
  59   33   65 1
  60   34   35 ar
  61   34   66 1
  62   35   67 1
  63   36   37 1
  64   36   68 1
  65   36   69 1
  66   37   38 1
  67   38   39 1
  68   38   40 2
  69   39   70 1
  70   39   71 1
  71   39   72 1
  72   41   42 1
  73   41   73 1
  74   41   74 1
  75   42   43 1
  76   43   44 1
  77   43   45 2
  78   44   75 1
  79   44   76 1
  80   44   77 1

#	End of record

