#	Name: ASD01913859
#	Creating user name:	WinNT
#	Creation time:	15. 06. 2019 20:02

#	Modifying user name:	WinNT
#	Modification time:	15. 06. 2019 20:02

#	Program:	/corina/corina34_cracker 3.40 0067  02.08.2006

@<TRIPOS>MOLECULE
ASD01913859
  45   48    0    0    0
SMALL
NO_CHARGES


@<TRIPOS>ATOM
   1 C1            -0.0173     1.4278     0.0099 C.ar    
   2 C2             0.0021    -0.0041     0.0020 C.1     
   3 C3             0.0180    -1.1779    -0.0044 C.1     
   4 C4             0.0374    -2.6098    -0.0123 C.ar    
   5 C5            -1.1615    -3.3383    -0.0048 C.ar    
   6 C6             0.1560    -5.3344    -0.0280 C.ar    
   7 N7             1.2706    -4.6189    -0.0411 N.ar    
   8 C8             1.2501    -3.3022    -0.0334 C.ar    
   9 C9            -1.0911    -4.7169    -0.0128 C.ar    
  10 C10            1.1757     2.1548     0.0024 C.ar    
  11 N11            1.1569     3.4714     0.0092 N.ar    
  12 C12           -1.1969     3.5069     0.0262 C.ar    
  13 C13           -1.2336     2.1243     0.0194 C.ar    
  14 C14            0.0271     4.1523     0.0232 C.ar    
  15 N15            0.2331    -6.7250    -0.0369 N.am    
  16 C16           -0.8027    -7.6033    -0.1211 C.2     
  17 N17           -0.3984    -8.8751    -0.3865 N.am    
  18 C18            0.9937    -8.7734    -0.7928 C.3     
  19 C19            1.4368    -7.5361     0.0353 C.3     
  20 O20           -1.9669    -7.2853     0.0259 O.2     
  21 C21           -1.2012   -10.0963    -0.2838 C.3     
  22 C22            1.9519    -9.8911    -0.4390 C.3     
  23 C23            3.3339    -9.4632    -0.9707 C.3     
  24 C24            3.7772    -8.1291    -0.3796 C.3     
  25 C25            2.7181    -7.0329    -0.5888 C.3     
  26 H26           -2.1160    -2.8330     0.0074 H       
  27 H27            2.1798    -2.7526    -0.0439 H       
  28 H28           -1.9938    -5.3097    -0.0070 H       
  29 H29            2.1210     1.6326    -0.0087 H       
  30 H30           -2.1141     4.0770     0.0335 H       
  31 H31           -2.1751     1.5951     0.0216 H       
  32 H32            0.0580     5.2319     0.0287 H       
  33 H33            1.0541    -8.5454    -1.8570 H       
  34 H34            1.6171    -7.8289     1.0696 H       
  35 H35           -2.2083    -9.8424     0.0468 H       
  36 H36           -1.2503   -10.5818    -1.2585 H       
  37 H37           -0.7421   -10.7733     0.4366 H       
  38 H38            1.9912   -10.0217     0.6424 H       
  39 H39            1.6377   -10.8185    -0.9178 H       
  40 H40            4.0665   -10.2277    -0.7119 H       
  41 H41            3.2849    -9.3726    -2.0558 H       
  42 H42            3.9579    -8.2566     0.6877 H       
  43 H43            4.7051    -7.8191    -0.8602 H       
  44 H44            2.5740    -6.8532    -1.6542 H       
  45 H45            3.0315    -6.1135    -0.0943 H       
@<TRIPOS>BOND
   1    1    2 1
   2    1   10 ar
   3    1   13 ar
   4    2    3 3
   5    3    4 1
   6    4    5 ar
   7    4    8 ar
   8    5    9 ar
   9    5   26 1
  10    6    7 ar
  11    6   15 1
  12    6    9 ar
  13    7    8 ar
  14    8   27 1
  15    9   28 1
  16   10   11 ar
  17   10   29 1
  18   11   14 ar
  19   12   13 ar
  20   12   14 ar
  21   12   30 1
  22   13   31 1
  23   14   32 1
  24   15   16 am
  25   15   19 1
  26   16   17 am
  27   16   20 2
  28   17   18 1
  29   17   21 1
  30   18   19 1
  31   18   22 1
  32   18   33 1
  33   19   25 1
  34   19   34 1
  35   21   35 1
  36   21   36 1
  37   21   37 1
  38   22   23 1
  39   22   38 1
  40   22   39 1
  41   23   24 1
  42   23   40 1
  43   23   41 1
  44   24   25 1
  45   24   42 1
  46   24   43 1
  47   25   44 1
  48   25   45 1

#	End of record

