#	Name: ASD01810070
#	Creating user name:	WinNT
#	Creation time:	15. 06. 2019 19:23

#	Modifying user name:	WinNT
#	Modification time:	15. 06. 2019 19:23

#	Program:	/corina/corina34_cracker 3.40 0067  02.08.2006

@<TRIPOS>MOLECULE
ASD01810070
  52   55    0    0    0
SMALL
NO_CHARGES


@<TRIPOS>ATOM
   1 C1            -0.0163     1.3480     0.0095 C.2     
   2 C2             0.0021    -0.0041     0.0020 C.2     
   3 C3             1.1850     2.0697     0.0019 C.2     
   4 C4             2.3721     1.3977    -0.0130 C.2     
   5 C5             2.3703    -0.0071    -0.0205 C.2     
   6 N6             1.1823    -0.6865    -0.0124 N.am    
   7 C7             3.5888    -0.7004    -0.0358 C.2     
   8 C8             3.5980    -2.0650    -0.0432 C.2     
   9 C9             2.3745    -2.7602    -0.0353 C.2     
  10 C10            1.1658    -2.0346    -0.0191 C.2     
  11 O11            0.1010    -2.6289    -0.0121 O.2     
  12 C12            2.3569    -4.2247    -0.0434 C.2     
  13 O13            3.4029    -4.8454    -0.0571 O.2     
  14 O14            1.1807    -4.8851    -0.0358 O.3     
  15 C15            4.8889     0.0617    -0.0445 C.3     
  16 N16            5.3857     0.1983     1.3312 N.3     
  17 C17            6.7573     0.7225     1.3457 C.3     
  18 C18            5.2974    -1.0782     2.0517 C.3     
  19 C19            5.6844    -0.8662     3.5171 C.3     
  20 C20            7.1116    -0.3160     3.5885 C.3     
  21 C21            7.1879     0.9883     2.7900 C.3     
  22 C22            7.4825    -0.0446     5.0478 C.3     
  23 C23            7.3994    -1.3275     5.8342 C.ar    
  24 C24            8.4809    -2.1873     5.8544 C.ar    
  25 N25            6.2973    -1.6139     6.4995 N.ar    
  26 C26            6.1797    -2.7240     7.2012 C.ar    
  27 C27            7.2181    -3.6343     7.2638 C.ar    
  28 C28            8.3944    -3.3650     6.5814 C.ar    
  29 C29            8.8546     0.4842     5.1151 C.1     
  30 N30            9.9135     0.8923     5.1671 N.1     
  31 H31           -0.9598     1.8734     0.0168 H       
  32 H32           -0.9297    -0.5501     0.0080 H       
  33 H33            1.1710     3.1496     0.0074 H       
  34 H34            3.3054     1.9410    -0.0194 H       
  35 H35            4.5332    -2.6050    -0.0552 H       
  36 H36            1.2197    -5.8513    -0.0417 H       
  37 H37            5.6223    -0.4779    -0.6438 H       
  38 H38            4.7272     1.0511    -0.4723 H       
  39 H39            7.4298    -0.0072     0.8947 H       
  40 H40            6.7969     1.6521     0.7780 H       
  41 H41            4.2766    -1.4564     1.9968 H       
  42 H42            5.9767    -1.7995     1.5974 H       
  43 H43            4.9970    -0.1554     3.9758 H       
  44 H44            5.6339    -1.8168     4.0480 H       
  45 H45            7.8040    -1.0435     3.1649 H       
  46 H46            8.2116     1.3626     2.8015 H       
  47 H47            6.5242     1.7282     3.2373 H       
  48 H48            6.7908     0.6851     5.4688 H       
  49 H49            9.3821    -1.9454     5.3105 H       
  50 H50            5.2616    -2.9243     7.7335 H       
  51 H51            7.1157    -4.5418     7.8402 H       
  52 H52            9.2222    -4.0580     6.6120 H       
@<TRIPOS>BOND
   1    1    2 2
   2    1    3 1
   3    1   31 1
   4    2    6 1
   5    2   32 1
   6    3    4 2
   7    3   33 1
   8    4    5 1
   9    4   34 1
  10    5    6 1
  11    5    7 2
  12    6   10 am
  13    7    8 1
  14    7   15 1
  15    8    9 2
  16    8   35 1
  17    9   10 1
  18    9   12 1
  19   10   11 2
  20   12   13 2
  21   12   14 1
  22   14   36 1
  23   15   16 1
  24   15   37 1
  25   15   38 1
  26   16   17 1
  27   16   18 1
  28   17   21 1
  29   17   39 1
  30   17   40 1
  31   18   19 1
  32   18   41 1
  33   18   42 1
  34   19   20 1
  35   19   43 1
  36   19   44 1
  37   20   21 1
  38   20   22 1
  39   20   45 1
  40   21   46 1
  41   21   47 1
  42   22   23 1
  43   22   29 1
  44   22   48 1
  45   23   24 ar
  46   23   25 ar
  47   24   28 ar
  48   24   49 1
  49   25   26 ar
  50   26   27 ar
  51   26   50 1
  52   27   28 ar
  53   27   51 1
  54   28   52 1
  55   29   30 3

#	End of record

