#	Name: ASD01470022
#	Creating user name:	WinNT
#	Creation time:	15. 06. 2019 19:21

#	Modifying user name:	WinNT
#	Modification time:	15. 06. 2019 19:21

#	Program:	/corina/corina34_cracker 3.40 0067  02.08.2006

@<TRIPOS>MOLECULE
ASD01470022
  77   82    0    0    0
SMALL
NO_CHARGES


@<TRIPOS>ATOM
   1 N1             1.7351     1.8911    -0.0463 N.am    
   2 C2             1.4340     0.4627    -0.0051 C.3     
   3 C3             0.1305     0.2038     0.7635 C.3     
   4 C4            -1.0919     0.3358    -0.1317 C.3     
   5 C5            -0.8666     1.3554    -1.2360 C.3     
   6 N6            -0.4321     2.6374    -0.6799 N.am    
   7 C7             0.8386     2.8343    -0.2873 C.2     
   8 O8             1.2003     3.9870    -0.1502 O.2     
   9 C9            -1.4017     3.7271    -0.5430 C.3     
  10 C10            3.1178     2.3073     0.2011 C.3     
  11 C11            3.8252     2.5071    -1.1145 C.ar    
  12 C12           -2.0193     3.6802     0.8309 C.ar    
  13 C13           -1.3499     4.2178     1.8915 C.ar    
  14 C14           -1.9246     4.1741     3.1668 C.ar    
  15 C15           -3.1874     3.5759     3.3417 C.ar    
  16 C16           -3.8470     3.0359     2.2402 C.ar    
  17 C17           -3.2677     3.0950     1.0046 C.ar    
  18 C18            3.6618     3.6888    -1.8126 C.ar    
  19 C19            4.3083     3.8761    -3.0196 C.ar    
  20 C20            5.1234     2.8762    -3.5315 C.ar    
  21 C21            5.2867     1.6878    -2.8270 C.ar    
  22 C22            4.6410     1.5096    -1.6177 C.ar    
  23 C23           -1.5038     4.6366     4.4853 C.2     
  24 N24           -2.4432     4.3289     5.3333 N.2     
  25 N25           -3.4914     3.6785     4.6740 N.pl3   
  26 C26            1.2893    -0.0633    -1.4345 C.3     
  27 O27            0.1669    -1.1171     1.3076 O.3     
  28 C28            2.0349    -1.3661    -1.5682 C.ar    
  29 C29            1.4533    -2.5429    -1.1351 C.ar    
  30 C30            2.1372    -3.7379    -1.2577 C.ar    
  31 C31            3.4027    -3.7562    -1.8138 C.ar    
  32 C32            3.9840    -2.5794    -2.2478 C.ar    
  33 C33            3.2982    -1.3850    -2.1291 C.ar    
  34 C34           -2.1715     1.5577    -2.0089 C.3     
  35 O35           -2.2089     0.7445     0.6604 O.3     
  36 C36           -2.5439     0.2767    -2.7098 C.ar    
  37 C37           -3.4387    -0.5978    -2.1221 C.ar    
  38 C38           -3.7803    -1.7729    -2.7650 C.ar    
  39 C39           -3.2275    -2.0733    -3.9959 C.ar    
  40 C40           -2.3334    -1.1983    -4.5841 C.ar    
  41 C41           -1.9951    -0.0212    -3.9431 C.ar    
  42 N42            5.7785     3.0626    -4.7529 N.pl3   
  43 F43            6.0791     0.7116    -3.3212 F       
  44 H44            2.2519    -0.0626     0.4880 H       
  45 H45            0.0514     0.9227     1.5790 H       
  46 H46           -1.3109    -0.6330    -0.5807 H       
  47 H47           -0.1027     0.9826    -1.9183 H       
  48 H48           -0.8962     4.6828    -0.6816 H       
  49 H49           -2.1818     3.6161    -1.2960 H       
  50 H50            3.1212     3.2424     0.7611 H       
  51 H51            3.6316     1.5372     0.7766 H       
  52 H52           -0.3817     4.6742     1.7477 H       
  53 H53           -4.8157     2.5743     2.3623 H       
  54 H54           -3.7831     2.6753     0.1533 H       
  55 H55            3.0276     4.4670    -1.4144 H       
  56 H56            4.1791     4.7997    -3.5643 H       
  57 H57            4.7671     0.5878    -1.0693 H       
  58 H58           -0.5786     5.1436     4.7166 H       
  59 H59           -4.3035     3.3527     5.0926 H       
  60 H60            0.2345    -0.2238    -1.6576 H       
  61 H61            1.7017     0.6647    -2.1330 H       
  62 H62           -0.6239    -1.3577     1.8094 H       
  63 H63            0.4646    -2.5287    -0.7007 H       
  64 H64            1.6831    -4.6573    -0.9187 H       
  65 H65            3.9373    -4.6897    -1.9090 H       
  66 H66            4.9727    -2.5936    -2.6819 H       
  67 H67            3.7524    -0.4656    -2.4681 H       
  68 H68           -2.9650     1.8365    -1.3155 H       
  69 H69           -2.0382     2.3496    -2.7459 H       
  70 H70           -2.4352     0.1270     1.3693 H       
  71 H71           -3.8706    -0.3632    -1.1604 H       
  72 H72           -4.4789    -2.4565    -2.3055 H       
  73 H73           -3.4939    -2.9917    -4.4979 H       
  74 H74           -1.9012    -1.4331    -5.5456 H       
  75 H75           -1.2966     0.6624    -4.4026 H       
  76 H76            5.6635     3.8916    -5.2434 H       
  77 H77            6.3479     2.3630    -5.1096 H       
@<TRIPOS>BOND
   1    1    2 1
   2    1   10 1
   3    1    7 am
   4    2    3 1
   5    2   26 1
   6    2   44 1
   7    3    4 1
   8    3   27 1
   9    3   45 1
  10    4    5 1
  11    4   35 1
  12    4   46 1
  13    5    6 1
  14    5   34 1
  15    5   47 1
  16    6    7 am
  17    6    9 1
  18    7    8 2
  19    9   12 1
  20    9   48 1
  21    9   49 1
  22   10   11 1
  23   10   50 1
  24   10   51 1
  25   11   18 ar
  26   11   22 ar
  27   12   13 ar
  28   12   17 ar
  29   13   14 ar
  30   13   52 1
  31   14   15 ar
  32   14   23 1
  33   15   16 ar
  34   15   25 1
  35   16   17 ar
  36   16   53 1
  37   17   54 1
  38   18   19 ar
  39   18   55 1
  40   19   20 ar
  41   19   56 1
  42   20   21 ar
  43   20   42 1
  44   21   22 ar
  45   21   43 1
  46   22   57 1
  47   23   24 2
  48   23   58 1
  49   24   25 1
  50   25   59 1
  51   26   28 1
  52   26   60 1
  53   26   61 1
  54   27   62 1
  55   28   29 ar
  56   28   33 ar
  57   29   30 ar
  58   29   63 1
  59   30   31 ar
  60   30   64 1
  61   31   32 ar
  62   31   65 1
  63   32   33 ar
  64   32   66 1
  65   33   67 1
  66   34   36 1
  67   34   68 1
  68   34   69 1
  69   35   70 1
  70   36   37 ar
  71   36   41 ar
  72   37   38 ar
  73   37   71 1
  74   38   39 ar
  75   38   72 1
  76   39   40 ar
  77   39   73 1
  78   40   41 ar
  79   40   74 1
  80   41   75 1
  81   42   76 1
  82   42   77 1

#	End of record

