#	Name: ASD00131004
#	Creating user name:	WinNT
#	Creation time:	15. 06. 2019 18:31

#	Modifying user name:	WinNT
#	Modification time:	15. 06. 2019 18:31

#	Program:	/corina/corina34_cracker 3.40 0067  02.08.2006

@<TRIPOS>MOLECULE
ASD00131004
  68   72    0    0    0
SMALL
NO_CHARGES


@<TRIPOS>ATOM
   1 N1             1.4521     1.3619    -1.2614 N.am    
   2 C2             1.4636     0.0182    -1.2671 C.2     
   3 C3             1.2732    -0.7393    -0.0309 C.2     
   4 C4             1.0779    -0.0462     1.1661 C.2     
   5 C5             1.0730     1.4198     1.1270 C.ar    
   6 C6             0.8812     2.1629     2.2976 C.ar    
   7 C7             0.8790     3.5276     2.2433 C.ar    
   8 C8             1.0659     4.1846     1.0349 C.ar    
   9 C9             1.2566     3.4732    -0.1295 C.ar    
  10 C10            1.2622     2.0810    -0.0993 C.ar    
  11 C11            1.2864    -2.2073    -0.0477 C.2     
  12 O12            2.3411    -2.8050    -0.1518 O.2     
  13 N13            0.1304    -2.8928     0.0524 N.am    
  14 O14            1.6346    -0.5768    -2.3162 O.2     
  15 O15            0.8981    -0.7083     2.3279 O.3     
  16 C16            1.6525     2.0822    -2.5213 C.3     
  17 C17            0.3190     2.3182    -3.1826 C.ar    
  18 C18           -0.3955     3.4688    -2.9062 C.ar    
  19 C19           -1.6187     3.6852    -3.5128 C.ar    
  20 C20           -2.1271     2.7512    -4.3960 C.ar    
  21 C21           -1.4121     1.6010    -4.6730 C.ar    
  22 C22           -0.1869     1.3867    -4.0698 C.ar    
  23 N23           -1.1881    -6.7627    -0.9664 N.3     
  24 C24           -1.1094    -6.4497     0.4662 C.3     
  25 C25           -1.0811    -4.9316     0.6572 C.3     
  26 C26            0.1304    -4.3520    -0.0783 C.3     
  27 C27            0.0490    -4.7332    -1.5590 C.3     
  28 C28           -0.0120    -6.2571    -1.6858 C.3     
  29 C29           -1.3565    -8.2061    -1.1815 C.3     
  30 C30           -2.1399   -10.2300    -4.3606 C.3     
  31 C31           -1.7358    -9.9777    -2.9057 C.3     
  32 C32           -1.6829    -8.4678    -2.6532 C.3     
  33 C33           -3.0458    -7.8564    -2.9923 C.3     
  34 C34           -3.3993    -8.1907    -4.4439 C.3     
  35 O35           -3.4010    -9.6092    -4.6178 O.3     
  36 H36            0.7348     1.6584     3.2413 H       
  37 H37            0.7305     4.0997     3.1471 H       
  38 H38            1.0615     5.2643     1.0072 H       
  39 H39            1.4007     3.9945    -1.0643 H       
  40 H40           -0.7017    -2.4201     0.2108 H       
  41 H41            0.8414    -1.6686     2.2287 H       
  42 H42            2.1327     3.0398    -2.3199 H       
  43 H43            2.2858     1.4899    -3.1817 H       
  44 H44            0.0017     4.1985    -2.2162 H       
  45 H45           -2.1773     4.5839    -3.2964 H       
  46 H46           -3.0831     2.9200    -4.8694 H       
  47 H47           -1.8095     0.8712    -5.3628 H       
  48 H48            0.3734     0.4898    -4.2890 H       
  49 H49           -1.9788    -6.8639     0.9767 H       
  50 H50           -0.2016    -6.8853     0.8837 H       
  51 H51           -1.9949    -4.4968     0.2523 H       
  52 H52           -1.0069    -4.6998     1.7197 H       
  53 H53            1.0461    -4.7563     0.3531 H       
  54 H54           -0.8470    -4.2953    -1.9988 H       
  55 H55            0.9307    -4.3597    -2.0799 H       
  56 H56            0.8906    -6.6936    -1.2582 H       
  57 H57           -0.0844    -6.5313    -2.7383 H       
  58 H58           -0.4342    -8.7229    -0.9164 H       
  59 H59           -2.1712    -8.5738    -0.5577 H       
  60 H60           -1.3854    -9.8097    -5.0255 H       
  61 H61           -2.2208   -11.3030    -4.5345 H       
  62 H62           -2.4689   -10.4329    -2.2398 H       
  63 H63           -0.7538   -10.4127    -2.7197 H       
  64 H64           -0.9140    -8.0195    -3.2825 H       
  65 H65           -3.8054    -8.2688    -2.3282 H       
  66 H66           -3.0007    -6.7745    -2.8683 H       
  67 H67           -4.3875    -7.7947    -4.6778 H       
  68 H68           -2.6613    -7.7437    -5.1100 H       
@<TRIPOS>BOND
   1    1    2 am
   2    1   10 1
   3    1   16 1
   4    2    3 1
   5    2   14 2
   6    3    4 2
   7    3   11 1
   8    4    5 1
   9    4   15 1
  10    5    6 ar
  11    5   10 ar
  12    6    7 ar
  13    6   36 1
  14    7    8 ar
  15    7   37 1
  16    8    9 ar
  17    8   38 1
  18    9   10 ar
  19    9   39 1
  20   11   12 2
  21   11   13 am
  22   13   26 1
  23   13   40 1
  24   15   41 1
  25   16   17 1
  26   16   42 1
  27   16   43 1
  28   17   18 ar
  29   17   22 ar
  30   18   19 ar
  31   18   44 1
  32   19   20 ar
  33   19   45 1
  34   20   21 ar
  35   20   46 1
  36   21   22 ar
  37   21   47 1
  38   22   48 1
  39   23   24 1
  40   23   28 1
  41   23   29 1
  42   24   25 1
  43   24   49 1
  44   24   50 1
  45   25   26 1
  46   25   51 1
  47   25   52 1
  48   26   27 1
  49   26   53 1
  50   27   28 1
  51   27   54 1
  52   27   55 1
  53   28   56 1
  54   28   57 1
  55   29   32 1
  56   29   58 1
  57   29   59 1
  58   30   31 1
  59   30   35 1
  60   30   60 1
  61   30   61 1
  62   31   32 1
  63   31   62 1
  64   31   63 1
  65   32   33 1
  66   32   64 1
  67   33   34 1
  68   33   65 1
  69   33   66 1
  70   34   35 1
  71   34   67 1
  72   34   68 1

#	End of record

