#	Name: ASD03240807
#	Creating user name:	WinNT
#	Creation time:	15. 06. 2019 20:35

#	Modifying user name:	WinNT
#	Modification time:	15. 06. 2019 20:35

#	Program:	/corina/corina34_cracker 3.40 0067  02.08.2006

@<TRIPOS>MOLECULE
ASD03240807
  58   63    0    0    0
SMALL
NO_CHARGES


@<TRIPOS>ATOM
   1 C1             2.0590     2.6374    -1.2767 C.3     
   2 C2             1.9638     1.7834    -0.0014 C.3     
   3 C3             2.0438     0.5497    -0.9160 C.3     
   4 C4             2.7795     1.4447    -1.9272 C.3     
   5 O5             0.7904     2.9302    -1.8656 O.3     
   6 C6             2.9431     3.8762    -1.1201 C.3     
   7 C7             2.8975    -0.5603    -0.3591 C.ar    
   8 C8             2.6086    -1.8760    -0.6744 C.ar    
   9 C9             3.3868    -2.8967    -0.1680 C.ar    
  10 C10            4.4668    -2.5997     0.6633 C.ar    
  11 C11            4.7530    -1.2711     0.9775 C.ar    
  12 C12            3.9705    -0.2590     0.4606 C.ar    
  13 C13            7.6043    -7.7219     0.5060 C.2     
  14 N14            8.0079    -7.7622     1.7882 N.2     
  15 C15            7.6827    -6.8308     2.6475 C.2     
  16 C16            6.8546    -5.7125     2.2029 C.ar    
  17 C17            6.4348    -5.6754     0.8562 C.ar    
  18 N18            6.8284    -6.7038     0.0216 N.pl3   
  19 C19            6.4736    -4.6858     3.0752 C.ar    
  20 C20            5.6843    -3.6571     2.5657 C.ar    
  21 C21            5.3057    -3.6904     1.2105 C.ar    
  22 N22            5.6861    -4.6797     0.4152 N.ar    
  23 N23            6.5856    -6.9570    -1.3339 N.2     
  24 C24            7.1824    -8.0758    -1.6684 C.2     
  25 C25            7.8267    -8.5932    -0.5516 C.2     
  26 C26            5.2483    -2.5420     3.4398 C.ar    
  27 C27            6.1830    -1.6331     3.9332 C.ar    
  28 C28            5.7713    -0.5970     4.7465 C.ar    
  29 C29            4.4340    -0.4597     5.0727 C.ar    
  30 C30            3.5020    -1.3588     4.5864 C.ar    
  31 C31            3.9011    -2.3949     3.7669 C.ar    
  32 C32            7.1662    -8.7018    -3.0391 C.3     
  33 Cl33           6.9709    -4.6932     4.7385 Cl      
  34 N34            0.7340     0.0815    -1.3885 N.3     
  35 H35            2.8220     1.8917     0.6617 H       
  36 H36            1.0108     1.8802     0.5188 H       
  37 H37            2.4851     1.2681    -2.9617 H       
  38 H38            3.8608     1.4604    -1.7905 H       
  39 H39            0.8438     3.4671    -2.6681 H       
  40 H40            3.9556     3.5693    -0.8578 H       
  41 H41            2.9629     4.4295    -2.0590 H       
  42 H42            2.5407     4.5125    -0.3319 H       
  43 H43            1.7719    -2.1047    -1.3179 H       
  44 H44            3.1600    -3.9234    -0.4146 H       
  45 H45            5.5876    -1.0350     1.6209 H       
  46 H46            4.1936     0.7703     0.6998 H       
  47 H47            8.0206    -6.8886     3.6717 H       
  48 H48            8.4000    -9.5077    -0.5137 H       
  49 H49            7.2274    -1.7397     3.6798 H       
  50 H50            6.4946     0.1078     5.1294 H       
  51 H51            4.1164     0.3525     5.7098 H       
  52 H52            2.4594    -1.2471     4.8450 H       
  53 H53            3.1720    -3.0935     3.3839 H       
  54 H54            8.0090    -8.3268    -3.6198 H       
  55 H55            7.2432    -9.7850    -2.9449 H       
  56 H56            6.2347    -8.4464    -3.5442 H       
  57 H57            0.8323    -0.7272    -1.9838 H       
  58 H58            0.1182    -0.1129    -0.6132 H       
@<TRIPOS>BOND
   1    1    2 1
   2    1    4 1
   3    1    5 1
   4    1    6 1
   5    2    3 1
   6    2   35 1
   7    2   36 1
   8    3    4 1
   9    3    7 1
  10    3   34 1
  11    4   37 1
  12    4   38 1
  13    5   39 1
  14    6   40 1
  15    6   41 1
  16    6   42 1
  17    7    8 ar
  18    7   12 ar
  19    8    9 ar
  20    8   43 1
  21    9   10 ar
  22    9   44 1
  23   10   11 ar
  24   10   21 1
  25   11   12 ar
  26   11   45 1
  27   12   46 1
  28   13   14 1
  29   13   18 1
  30   13   25 2
  31   14   15 2
  32   15   16 1
  33   15   47 1
  34   16   17 ar
  35   16   19 ar
  36   17   18 1
  37   17   22 ar
  38   18   23 1
  39   19   20 ar
  40   19   33 1
  41   20   21 ar
  42   20   26 1
  43   21   22 ar
  44   23   24 2
  45   24   25 1
  46   24   32 1
  47   25   48 1
  48   26   27 ar
  49   26   31 ar
  50   27   28 ar
  51   27   49 1
  52   28   29 ar
  53   28   50 1
  54   29   30 ar
  55   29   51 1
  56   30   31 ar
  57   30   52 1
  58   31   53 1
  59   32   54 1
  60   32   55 1
  61   32   56 1
  62   34   57 1
  63   34   58 1

#	End of record

