#	Name: ASD06590062
#	Creating user name:	WinNT
#	Creation time:	15. 06. 2019 21:06

#	Modifying user name:	WinNT
#	Modification time:	15. 06. 2019 21:06

#	Program:	/corina/corina34_cracker 3.40 0067  02.08.2006

@<TRIPOS>MOLECULE
ASD06590062
 242  243    0    0    0
SMALL
NO_CHARGES


@<TRIPOS>ATOM
   1 C1            -4.2711    -6.7397     1.9557 C.2     
   2 O2            -4.7521    -7.8226     2.2143 O.2     
   3 N3            -2.1240    -7.6871     2.5861 N.3     
   4 C4            -2.7749    -6.5804     1.8723 C.3     
   5 C5            -2.3414    -6.5948     0.4051 C.3     
   6 C6            -0.8637    -6.3131     0.3150 C.2     
   7 O7            -0.2209    -6.1198     1.3245 O.2     
   8 N8            -0.2568    -6.2759    -0.8878 N.am    
   9 C9            -7.1922    -4.5127     1.5303 C.2     
  10 O10           -6.5160    -3.5350     1.2902 O.2     
  11 N11           -5.0748    -5.6801     1.7373 N.am    
  12 C12           -6.5296    -5.8364     1.8124 C.3     
  13 C13          -10.5415    -3.1001     1.9172 C.2     
  14 O14          -10.9346    -4.0602     2.5452 O.2     
  15 N15           -8.5364    -4.4153     1.5448 N.am    
  16 C16           -9.1806    -3.1284     1.2706 C.3     
  17 C17           -9.3302    -2.9448    -0.2410 C.3     
  18 C18           -7.9445    -2.8487    -0.8826 C.3     
  19 C19           -8.0919    -2.6679    -2.3715 C.2     
  20 O20           -9.1922    -2.6207    -2.8684 O.2     
  21 O21           -7.0007    -2.5592    -3.1456 O.3     
  22 C22          -13.5302    -1.0073     1.6906 C.2     
  23 O23          -13.0515    -0.2506     0.8727 O.2     
  24 N24          -11.3218    -2.0077     1.7975 N.am    
  25 C25          -12.6448    -1.9801     2.4261 C.3     
  26 C26          -12.5071    -1.5416     3.8854 C.3     
  27 C27          -11.7227    -2.5996     4.6640 C.3     
  28 C28          -11.7632    -0.2060     3.9486 C.3     
  29 C29          -16.9237     0.2715     2.1510 C.2     
  30 O30          -17.0769    -0.3475     3.1827 O.2     
  31 N31          -14.8540    -0.9782     1.9419 N.am    
  32 C32          -15.6982     0.0364     1.3061 C.3     
  33 C33          -16.1210    -0.4489    -0.0819 C.3     
  34 C34          -14.8869    -0.5683    -0.9783 C.3     
  35 C35          -15.3034    -1.0462    -2.3455 C.2     
  36 O36          -16.4723    -1.2694    -2.5798 O.2     
  37 N37          -14.3771    -1.2257    -3.3078 N.am    
  38 C38          -20.1565     1.9209     1.7137 C.2     
  39 O39          -19.9744     2.0863     0.5261 O.2     
  40 N40          -17.8495     1.1696     1.7602 N.am    
  41 C41          -19.0408     1.3982     2.5815 C.3     
  42 C42          -18.7199     2.4227     3.6716 C.3     
  43 C43          -23.4057     3.5049     2.2585 C.2     
  44 O44          -23.2067     3.6323     3.4480 O.2     
  45 N45          -21.3567     2.2047     2.2574 N.am    
  46 C46          -22.4413     2.7129     1.4138 C.3     
  47 C47          -23.1766     1.5380     0.7659 C.3     
  48 C48          -22.2298     0.8075    -0.1885 C.3     
  49 C49          -22.9542    -0.3497    -0.8267 C.2     
  50 O50          -24.1091    -0.5678    -0.5468 O.2     
  51 O51          -22.3162    -1.1382    -1.7059 O.3     
  52 C52          -26.7909     4.7630     2.0302 C.2     
  53 O53          -27.0500     3.9925     1.1301 O.2     
  54 N54          -24.4894     4.0716     1.6920 N.am    
  55 C55          -25.3655     4.9344     2.4884 C.3     
  56 C56          -24.9441     6.3942     2.3085 C.3     
  57 C57          -24.8970     6.7314     0.8169 C.3     
  58 C58          -26.3161     6.7146     0.2452 C.3     
  59 C59          -23.5587     6.6045     2.9229 C.3     
  60 C60          -29.9923     6.4544     2.5336 C.2     
  61 O61          -29.4615     7.4408     2.9985 O.2     
  62 N62          -27.7777     5.4658     2.6207 N.am    
  63 C63          -29.1739     5.2209     2.2507 C.3     
  64 C64          -29.7199     4.0482     3.0678 C.3     
  65 C65          -28.9704     2.7695     2.6883 C.3     
  66 C66          -29.5163     1.5968     3.5053 C.3     
  67 C67          -28.7668     0.3181     3.1258 C.3     
  68 N68          -29.2910    -0.8079     3.9102 N.3     
  69 C69          -33.5484     7.2692     2.7635 C.2     
  70 O70          -33.8770     6.1037     2.6962 O.2     
  71 N71          -31.3140     6.4612     2.2700 N.am    
  72 C72          -32.1095     7.6603     2.5450 C.3     
  73 C73          -32.0163     8.6180     1.3555 C.3     
  74 C74          -30.5757     9.1126     1.2106 C.3     
  75 C75          -30.4825    10.0703     0.0211 C.3     
  76 C76          -29.0419    10.5649    -0.1238 C.3     
  77 N77          -28.9524    11.4844    -1.2659 N.3     
  78 C78          -36.7621     9.0042     2.9220 C.2     
  79 O79          -36.2780    10.0522     2.5501 O.2     
  80 N80          -34.4701     8.2147     3.0338 N.am    
  81 C81          -35.8689     7.8346     3.2462 C.3     
  82 C82          -36.0707     7.4284     4.7075 C.3     
  83 O83          -35.8546     8.5614     5.5510 O.3     
  84 C84          -39.0805    10.9181     3.9370 C.2     
  85 O85          -38.4958    10.6355     4.9558 O.2     
  86 N86          -38.0990     8.8857     3.0453 N.am    
  87 C87          -38.9673    10.0228     2.7301 C.3     
  88 C88          -40.3563     9.5116     2.3423 C.3     
  89 C89          -40.2607     8.7170     1.0654 C.2     
  90 C90          -40.4726     9.1757    -0.1783 C.2     
  91 N91          -40.2940     8.1662    -1.0846 N.pl3   
  92 C92          -39.9541     7.0037    -0.4297 C.ar    
  93 C93          -39.6672     5.7120    -0.8581 C.ar    
  94 C94          -39.3523     4.7389     0.0652 C.ar    
  95 C95          -39.3183     5.0339     1.4209 C.ar    
  96 C96          -39.5974     6.2963     1.8639 C.ar    
  97 C97          -39.9126     7.2991     0.9454 C.ar    
  98 O98          -39.8308    12.0297     3.8800 O.3     
  99 C99            1.0647    -6.0239    -0.9683 C.2     
 100 O100           1.7075    -5.8307     0.0411 O.2     
 101 C101          16.9811    -3.5696   -10.5513 C.3     
 102 C102          16.2922    -3.6118    -9.1859 C.3     
 103 C103          14.8043    -3.9143    -9.3745 C.3     
 104 C104          14.1153    -3.9565    -8.0090 C.3     
 105 C105          12.6275    -4.2590    -8.1976 C.3     
 106 C106          11.9385    -4.3012    -6.8321 C.3     
 107 C107          10.4506    -4.6037    -7.0207 C.3     
 108 C108           9.7617    -4.6458    -5.6553 C.3     
 109 C109           8.2738    -4.9484    -5.8439 C.3     
 110 C110           7.5849    -4.9905    -4.4784 C.3     
 111 C111           6.0970    -5.2930    -4.6670 C.3     
 112 C112           5.4080    -5.3352    -3.3015 C.3     
 113 C113           3.9201    -5.6377    -3.4901 C.3     
 114 C114           3.2312    -5.6799    -2.1247 C.3     
 115 C115           1.7433    -5.9824    -2.3133 C.3     
 116 H116          -2.3433    -7.6610     3.5706 H       
 117 H117          -2.3776    -8.5764     2.1826 H       
 118 H118          -2.4844    -5.6336     2.3277 H       
 119 H119          -2.5516    -7.5735    -0.0263 H       
 120 H120          -2.8912    -5.8302    -0.1438 H       
 121 H121          -0.7712    -6.4306    -1.6955 H       
 122 H122          -4.6901    -4.8141     1.5304 H       
 123 H123          -6.8074    -6.1766     2.8100 H       
 124 H124          -6.8547    -6.5700     1.0747 H       
 125 H125          -9.0773    -5.1973     1.7369 H       
 126 H126          -8.5690    -2.3223     1.6758 H       
 127 H127          -9.8659    -3.7970    -0.6592 H       
 128 H128          -9.8881    -2.0304    -0.4425 H       
 129 H129          -7.4088    -1.9966    -0.4644 H       
 130 H130          -7.3866    -3.7632    -0.6811 H       
 131 H131          -7.1455    -2.4446    -4.0948 H       
 132 H132         -11.0074    -1.2397     1.2952 H       
 133 H133         -13.0869    -2.9756     2.3860 H       
 134 H134         -13.4977    -1.4268     4.3253 H       
 135 H135         -10.6955    -2.6309     4.3006 H       
 136 H136         -11.7254    -2.3467     5.7243 H       
 137 H137         -12.1883    -3.5748     4.5218 H       
 138 H138         -12.3221     0.5477     3.3939 H       
 139 H139         -11.6651     0.1064     4.9882 H       
 140 H140         -10.7726    -0.3208     3.5086 H       
 141 H141         -15.2478    -1.6291     2.5437 H       
 142 H142         -15.1385     0.9669     1.2108 H       
 143 H143         -16.6027    -1.4228     0.0048 H       
 144 H144         -16.8199     0.2644    -0.5189 H       
 145 H145         -14.4053     0.4057    -1.0651 H       
 146 H146         -14.1881    -1.2816    -0.5414 H       
 147 H147         -13.4422    -1.0472    -3.1204 H       
 148 H148         -14.6452    -1.5333    -4.1878 H       
 149 H149         -17.7269     1.6647     0.9351 H       
 150 H150         -19.3489     0.4604     3.0437 H       
 151 H151         -18.4118     3.3606     3.2095 H       
 152 H152         -19.6063     2.5928     4.2827 H       
 153 H153         -17.9129     2.0446     4.2993 H       
 154 H154         -21.5023     2.0725     3.2072 H       
 155 H155         -22.0267     3.3551     0.6367 H       
 156 H156         -23.5145     0.8493     1.5402 H       
 157 H157         -24.0372     1.9101     0.2098 H       
 158 H158         -21.8919     1.4962    -0.9629 H       
 159 H159         -21.3693     0.4354     0.3675 H       
 160 H160         -22.8221    -1.8678    -2.0889 H       
 161 H161         -24.6893     3.9081     0.7570 H       
 162 H162         -25.2866     4.6604     3.5404 H       
 163 H163         -25.6644     7.0442     2.8054 H       
 164 H164         -24.4626     7.7219     0.6818 H       
 165 H165         -24.2869     5.9930     0.2966 H       
 166 H166         -26.6456     5.6830     0.1209 H       
 167 H167         -26.9895     7.2311     0.9292 H       
 168 H168         -26.3242     7.2176    -0.7217 H       
 169 H169         -22.8490     5.9172     2.4625 H       
 170 H170         -23.2359     7.6309     2.7485 H       
 171 H171         -23.6044     6.4152     3.9954 H       
 172 H172         -27.5635     6.1338     3.2906 H       
 173 H173         -29.2319     4.9821     1.1888 H       
 174 H174         -29.5806     4.2493     4.1300 H       
 175 H175         -30.7821     3.9226     2.8580 H       
 176 H176         -29.1097     2.5684     1.6261 H       
 177 H177         -27.9081     2.8951     2.8980 H       
 178 H178         -29.3770     1.7979     4.5675 H       
 179 H179         -30.5785     1.4711     3.2955 H       
 180 H180         -28.9061     0.1169     2.0636 H       
 181 H181         -27.7046     0.4437     3.3355 H       
 182 H182         -30.2872    -0.9047     3.7827 H       
 183 H183         -28.8117    -1.6648     3.6776 H       
 184 H184         -31.7385     5.6723     1.8982 H       
 185 H185         -31.7271     8.1529     3.4390 H       
 186 H186         -32.3151     8.0975     0.4456 H       
 187 H187         -32.6775     9.4686     1.5213 H       
 188 H188         -30.2770     9.6331     2.1205 H       
 189 H189         -29.9145     8.2620     1.0449 H       
 190 H190         -30.7812     9.5498    -0.8888 H       
 191 H191         -31.1437    10.9209     0.1868 H       
 192 H192         -28.7432    11.0854     0.7861 H       
 193 H193         -28.3807     9.7143    -0.2895 H       
 194 H194         -28.0099    11.8252    -1.3827 H       
 195 H195         -29.2854    11.0450    -2.1109 H       
 196 H196         -34.2073     9.1469     3.0877 H       
 197 H197         -36.1198     6.9951     2.5978 H       
 198 H198         -37.0878     7.0615     4.8454 H       
 199 H199         -35.3623     6.6417     4.9671 H       
 200 H200         -35.9660     8.3769     6.4937 H       
 201 H201         -38.4862     8.0476     3.3428 H       
 202 H202         -38.5420    10.5853     1.8990 H       
 203 H203         -40.7446     8.8756     3.1378 H       
 204 H204         -41.0267    10.3582     2.1940 H       
 205 H205         -40.7442    10.1910    -0.4267 H       
 206 H206         -40.3922     8.2562    -2.0455 H       
 207 H207         -39.6913     5.4725    -1.9109 H       
 208 H208         -39.1301     3.7364    -0.2695 H       
 209 H209         -39.0697     4.2596     2.1316 H       
 210 H210         -39.5694     6.5184     2.9204 H       
 211 H211         -39.8728    12.5724     4.6793 H       
 212 H212          16.8663    -4.5340   -11.0461 H       
 213 H213          16.5267    -2.7907   -11.1636 H       
 214 H214          18.0411    -3.3541   -10.4170 H       
 215 H215          16.7465    -4.3907    -8.5735 H       
 216 H216          16.4070    -2.6474    -8.6910 H       
 217 H217          14.3499    -3.1354    -9.9868 H       
 218 H218          14.6895    -4.8787    -9.8693 H       
 219 H219          14.5697    -4.7354    -7.3967 H       
 220 H220          14.2302    -2.9921    -7.5142 H       
 221 H221          12.1731    -3.4801    -8.8099 H       
 222 H222          12.5126    -5.2234    -8.6924 H       
 223 H223          12.3929    -5.0801    -6.2198 H       
 224 H224          12.0533    -3.3368    -6.3373 H       
 225 H225           9.9962    -3.8248    -7.6330 H       
 226 H226          10.3358    -5.5681    -7.5155 H       
 227 H227          10.2161    -5.4248    -5.0429 H       
 228 H228           9.8765    -3.6814    -5.1604 H       
 229 H229           7.8194    -4.1694    -6.4562 H       
 230 H230           8.1590    -5.9128    -6.3387 H       
 231 H231           8.0392    -5.7694    -3.8661 H       
 232 H232           7.6997    -4.0261    -3.9836 H       
 233 H233           5.6426    -4.5141    -5.2793 H       
 234 H234           5.9822    -6.2574    -5.1618 H       
 235 H235           5.8624    -6.1141    -2.6892 H       
 236 H236           5.5228    -4.3708    -2.8067 H       
 237 H237           3.4658    -4.8588    -4.1024 H       
 238 H238           3.8053    -6.6021    -3.9849 H       
 239 H239           3.6856    -6.4588    -1.5123 H       
 240 H240           3.3460    -4.7155    -1.6298 H       
 241 H241           1.6285    -6.9468    -2.8081 H       
 242 H242           1.2889    -5.2035    -2.9256 H       
@<TRIPOS>BOND
   1    1    2 2
   2    1    4 1
   3    1   11 am
   4    3    4 1
   5    3  116 1
   6    3  117 1
   7    4    5 1
   8    4  118 1
   9    5    6 1
  10    5  119 1
  11    5  120 1
  12    6    7 2
  13    6    8 am
  14    8   99 am
  15    8  121 1
  16    9   10 2
  17    9   12 1
  18    9   15 am
  19   11   12 1
  20   11  122 1
  21   12  123 1
  22   12  124 1
  23   13   14 2
  24   13   16 1
  25   13   24 am
  26   15   16 1
  27   15  125 1
  28   16   17 1
  29   16  126 1
  30   17   18 1
  31   17  127 1
  32   17  128 1
  33   18   19 1
  34   18  129 1
  35   18  130 1
  36   19   20 2
  37   19   21 1
  38   21  131 1
  39   22   23 2
  40   22   25 1
  41   22   31 am
  42   24   25 1
  43   24  132 1
  44   25   26 1
  45   25  133 1
  46   26   27 1
  47   26   28 1
  48   26  134 1
  49   27  135 1
  50   27  136 1
  51   27  137 1
  52   28  138 1
  53   28  139 1
  54   28  140 1
  55   29   30 2
  56   29   32 1
  57   29   40 am
  58   31   32 1
  59   31  141 1
  60   32   33 1
  61   32  142 1
  62   33   34 1
  63   33  143 1
  64   33  144 1
  65   34   35 1
  66   34  145 1
  67   34  146 1
  68   35   36 2
  69   35   37 am
  70   37  147 1
  71   37  148 1
  72   38   39 2
  73   38   41 1
  74   38   45 am
  75   40   41 1
  76   40  149 1
  77   41   42 1
  78   41  150 1
  79   42  151 1
  80   42  152 1
  81   42  153 1
  82   43   44 2
  83   43   46 1
  84   43   54 am
  85   45   46 1
  86   45  154 1
  87   46   47 1
  88   46  155 1
  89   47   48 1
  90   47  156 1
  91   47  157 1
  92   48   49 1
  93   48  158 1
  94   48  159 1
  95   49   50 2
  96   49   51 1
  97   51  160 1
  98   52   53 2
  99   52   55 1
 100   52   62 am
 101   54   55 1
 102   54  161 1
 103   55   56 1
 104   55  162 1
 105   56   57 1
 106   56   59 1
 107   56  163 1
 108   57   58 1
 109   57  164 1
 110   57  165 1
 111   58  166 1
 112   58  167 1
 113   58  168 1
 114   59  169 1
 115   59  170 1
 116   59  171 1
 117   60   61 2
 118   60   63 1
 119   60   71 am
 120   62   63 1
 121   62  172 1
 122   63   64 1
 123   63  173 1
 124   64   65 1
 125   64  174 1
 126   64  175 1
 127   65   66 1
 128   65  176 1
 129   65  177 1
 130   66   67 1
 131   66  178 1
 132   66  179 1
 133   67   68 1
 134   67  180 1
 135   67  181 1
 136   68  182 1
 137   68  183 1
 138   69   70 2
 139   69   72 1
 140   69   80 am
 141   71   72 1
 142   71  184 1
 143   72   73 1
 144   72  185 1
 145   73   74 1
 146   73  186 1
 147   73  187 1
 148   74   75 1
 149   74  188 1
 150   74  189 1
 151   75   76 1
 152   75  190 1
 153   75  191 1
 154   76   77 1
 155   76  192 1
 156   76  193 1
 157   77  194 1
 158   77  195 1
 159   78   79 2
 160   78   81 1
 161   78   86 am
 162   80   81 1
 163   80  196 1
 164   81   82 1
 165   81  197 1
 166   82   83 1
 167   82  198 1
 168   82  199 1
 169   83  200 1
 170   84   85 2
 171   84   87 1
 172   84   98 1
 173   86   87 1
 174   86  201 1
 175   87   88 1
 176   87  202 1
 177   88   89 1
 178   88  203 1
 179   88  204 1
 180   89   90 2
 181   89   97 1
 182   90   91 1
 183   90  205 1
 184   91   92 1
 185   91  206 1
 186   92   93 ar
 187   92   97 ar
 188   93   94 ar
 189   93  207 1
 190   94   95 ar
 191   94  208 1
 192   95   96 ar
 193   95  209 1
 194   96   97 ar
 195   96  210 1
 196   98  211 1
 197   99  100 2
 198   99  115 1
 199  101  102 1
 200  101  212 1
 201  101  213 1
 202  101  214 1
 203  102  103 1
 204  102  215 1
 205  102  216 1
 206  103  104 1
 207  103  217 1
 208  103  218 1
 209  104  105 1
 210  104  219 1
 211  104  220 1
 212  105  106 1
 213  105  221 1
 214  105  222 1
 215  106  107 1
 216  106  223 1
 217  106  224 1
 218  107  108 1
 219  107  225 1
 220  107  226 1
 221  108  109 1
 222  108  227 1
 223  108  228 1
 224  109  110 1
 225  109  229 1
 226  109  230 1
 227  110  111 1
 228  110  231 1
 229  110  232 1
 230  111  112 1
 231  111  233 1
 232  111  234 1
 233  112  113 1
 234  112  235 1
 235  112  236 1
 236  113  114 1
 237  113  237 1
 238  113  238 1
 239  114  115 1
 240  114  239 1
 241  114  240 1
 242  115  241 1
 243  115  242 1

#	End of record

