#	Name: ASD01410834
#	Creating user name:	WinNT
#	Creation time:	15. 06. 2019 19:18

#	Modifying user name:	WinNT
#	Modification time:	15. 06. 2019 19:18

#	Program:	/corina/corina34_cracker 3.40 0067  02.08.2006

@<TRIPOS>MOLECULE
ASD01410834
  97  103    0    0    0
SMALL
NO_CHARGES


@<TRIPOS>ATOM
   1 C1            -0.0522     1.3559     0.9465 C.3     
   2 C2            -0.5406    -0.0491     1.3643 C.3     
   3 N3            -1.2495     0.1978     2.6339 N.am    
   4 C4            -1.9749     1.4640     2.4654 C.3     
   5 C5            -1.2213     2.2699     1.3875 C.3     
   6 O6             1.1493     1.7010     1.6389 O.3     
   7 C7            -3.3865     1.1928     2.0130 C.2     
   8 O8            -3.7606     0.0515     1.8445 O.2     
   9 N9            -4.2333     2.2186     1.7957 N.am    
  10 C10            0.6444    -0.9736     1.6132 C.3     
  11 N11            0.2349    -2.0931     2.4682 N.3     
  12 C12           -0.1314    -1.6494     3.8177 C.3     
  13 C13           -1.1864    -0.5734     3.7303 C.2     
  14 O14           -1.9692    -0.4076     4.6417 O.2     
  15 C15           -0.6793    -2.8363     4.6127 C.3     
  16 C16           -1.9249    -3.3862     3.9148 C.3     
  17 C17            0.3858    -3.9317     4.6929 C.3     
  18 C18           -5.5769     1.9608     1.2716 C.3     
  19 C19           -5.6332     1.4117    -0.1307 C.2     
  20 N20           -4.5057     1.3160    -0.8628 N.am    
  21 O21           -6.6932     1.0558    -0.6004 O.2     
  22 S22           -4.5846     0.8377    -2.4462 S.o2    
  23 C23           -5.5075     2.1621    -3.2737 C.3     
  24 C24           -6.6414     1.4824     2.2609 C.3     
  25 C25           -6.6979     2.9075     1.7051 C.3     
  26 C26           -5.8576     1.9635    -4.7498 C.3     
  27 C27           -6.9515     1.8669    -3.6844 C.3     
  28 O28           -3.2307     0.8287    -2.8775 O.2     
  29 O29           -5.3509    -0.3585    -2.4131 O.2     
  30 C30           -7.6819     0.4834     1.7508 C.3     
  31 C31           -8.5726     0.0370     2.9120 C.3     
  32 C32            1.9417     2.6407     1.0661 C.ar    
  33 C33            3.1674     3.0186     1.6627 C.ar    
  34 C34            1.5792     3.2452    -0.1089 C.ar    
  35 C35            2.4161     4.2131    -0.6809 C.ar    
  36 N36            3.5578     4.5627    -0.1127 N.ar    
  37 C37            3.9657     4.0041     1.0312 C.ar    
  38 C38            2.0135     4.8576    -1.9485 C.2     
  39 S39            0.5307     4.5235    -2.8393 S.3     
  40 C40            5.1814     4.3846     1.6259 C.ar    
  41 C41            5.5765     3.7926     2.8047 C.ar    
  42 C42            4.7825     2.8181     3.4160 C.ar    
  43 C43            3.5993     2.4351     2.8625 C.ar    
  44 Cl44           6.1787     5.5931     0.8783 Cl      
  45 O45            6.7516     4.1595     3.3799 O.3     
  46 C46            7.1066     3.5093     4.6019 C.3     
  47 N47            2.6953     5.7678    -2.5835 N.2     
  48 C48            2.1820     6.2291    -3.6982 C.2     
  49 C49            1.0023     5.7068    -4.0575 C.2     
  50 C50            2.8751     7.2832    -4.5226 C.3     
  51 C51            3.6969     6.6105    -5.6240 C.3     
  52 C52            1.8302     8.2040    -5.1561 C.3     
  53 H53            0.0968     1.4081    -0.1321 H       
  54 H54           -1.2158    -0.4643     0.6161 H       
  55 H55           -1.9839     2.0162     3.4052 H       
  56 H56           -0.8375     3.1990     1.8088 H       
  57 H57           -1.8779     2.4789     0.5430 H       
  58 H58           -3.9532     3.1274     1.9863 H       
  59 H59            1.0084    -1.3598     0.6610 H       
  60 H60            1.4417    -0.4159     2.1044 H       
  61 H61           -0.5159    -2.6167     2.0435 H       
  62 H62            0.7504    -1.2527     4.3209 H       
  63 H63           -0.9411    -2.5097     5.6192 H       
  64 H64           -1.6631    -3.7127     2.9084 H       
  65 H65           -2.3152    -4.2317     4.4812 H       
  66 H66           -2.6837    -2.6057     3.8577 H       
  67 H67            1.3038    -3.5162     5.1085 H       
  68 H68            0.0297    -4.7386     5.3334 H       
  69 H69            0.5828    -4.3208     3.6939 H       
  70 H70           -3.6479     1.5274    -0.4622 H       
  71 H71           -5.2748     3.1745    -2.9434 H       
  72 H72           -6.3420     1.3594     3.3018 H       
  73 H73           -6.4360     3.7219     2.3805 H       
  74 H74           -7.4764     3.1329     0.9762 H       
  75 H75           -5.8556     2.8453    -5.3906 H       
  76 H76           -5.5334     1.0370    -5.2237 H       
  77 H77           -7.3469     0.8769    -3.4574 H       
  78 H78           -7.6692     2.6851    -3.6243 H       
  79 H79           -8.2949     0.9571     0.9840 H       
  80 H80           -7.1757    -0.3838     1.3269 H       
  81 H81           -7.9596    -0.4366     3.6788 H       
  82 H82           -9.0787     0.9043     3.3359 H       
  83 H83           -9.3139    -0.6746     2.5485 H       
  84 H84            0.6519     2.9765    -0.5929 H       
  85 H85            5.1102     2.3658     4.3404 H       
  86 H86            2.9955     1.6810     3.3453 H       
  87 H87            8.0642     3.8937     4.9531 H       
  88 H88            6.3401     3.7029     5.3524 H       
  89 H89            7.1862     2.4355     4.4324 H       
  90 H90            0.4371     5.9666    -4.9404 H       
  91 H91            3.5353     7.8688    -3.8829 H       
  92 H92            4.1982     7.3729    -6.2203 H       
  93 H93            4.4413     5.9545    -5.1727 H       
  94 H94            3.0366     6.0249    -6.2637 H       
  95 H95            1.2447     8.6832    -4.3714 H       
  96 H96            2.3315     8.9663    -5.7523 H       
  97 H97            1.1700     7.6183    -5.7958 H       
@<TRIPOS>BOND
   1    1    2 1
   2    1    6 1
   3    1    5 1
   4    1   53 1
   5    2    3 1
   6    2   10 1
   7    2   54 1
   8    3    4 1
   9    3   13 am
  10    4    5 1
  11    4    7 1
  12    4   55 1
  13    5   56 1
  14    5   57 1
  15    6   32 1
  16    7    8 2
  17    7    9 am
  18    9   18 1
  19    9   58 1
  20   10   11 1
  21   10   59 1
  22   10   60 1
  23   11   12 1
  24   11   61 1
  25   12   13 1
  26   12   15 1
  27   12   62 1
  28   13   14 2
  29   15   16 1
  30   15   17 1
  31   15   63 1
  32   16   64 1
  33   16   65 1
  34   16   66 1
  35   17   67 1
  36   17   68 1
  37   17   69 1
  38   18   19 1
  39   18   24 1
  40   18   25 1
  41   19   20 am
  42   19   21 2
  43   20   22 am
  44   20   70 1
  45   22   23 1
  46   22   28 2
  47   22   29 2
  48   23   26 1
  49   23   27 1
  50   23   71 1
  51   24   25 1
  52   24   30 1
  53   24   72 1
  54   25   73 1
  55   25   74 1
  56   26   27 1
  57   26   75 1
  58   26   76 1
  59   27   77 1
  60   27   78 1
  61   30   31 1
  62   30   79 1
  63   30   80 1
  64   31   81 1
  65   31   82 1
  66   31   83 1
  67   32   33 ar
  68   32   34 ar
  69   33   37 ar
  70   33   43 ar
  71   34   35 ar
  72   34   84 1
  73   35   36 ar
  74   35   38 1
  75   36   37 ar
  76   37   40 ar
  77   38   47 2
  78   38   39 1
  79   39   49 1
  80   40   41 ar
  81   40   44 1
  82   41   42 ar
  83   41   45 1
  84   42   43 ar
  85   42   85 1
  86   43   86 1
  87   45   46 1
  88   46   87 1
  89   46   88 1
  90   46   89 1
  91   47   48 1
  92   48   49 2
  93   48   50 1
  94   49   90 1
  95   50   51 1
  96   50   52 1
  97   50   91 1
  98   51   92 1
  99   51   93 1
 100   51   94 1
 101   52   95 1
 102   52   96 1
 103   52   97 1

#	End of record

