#	Name: ASD03092396
#	Creating user name:	WinNT
#	Creation time:	15. 06. 2019 20:32

#	Modifying user name:	WinNT
#	Modification time:	15. 06. 2019 20:32

#	Program:	/corina/corina34_cracker 3.40 0067  02.08.2006

@<TRIPOS>MOLECULE
ASD03092396
  56   59    0    0    0
SMALL
NO_CHARGES


@<TRIPOS>ATOM
   1 C1            -0.1267     1.4450     0.0219 C.2     
   2 C2            -0.1635    -0.0317     0.0286 C.ar    
   3 C3             1.0115    -0.7629    -0.1600 C.ar    
   4 C4             0.9716    -2.1404    -0.1524 C.ar    
   5 C5            -0.2323    -2.8007     0.0417 C.ar    
   6 C6            -1.4016    -2.0798     0.2294 C.ar    
   7 C7            -1.3720    -0.7015     0.2294 C.ar    
   8 O8             0.9389     2.0262    -0.0458 O.2     
   9 N9            -1.2748     2.1480     0.0852 N.am    
  10 C10            2.3205    -0.0468    -0.3721 C.3     
  11 F11           -0.2660    -4.1513     0.0474 F       
  12 C12           -1.2384     3.6126     0.0786 C.3     
  13 S13           -4.9306     5.0762    -0.3941 S.3     
  14 C14           -4.4918     4.7848     1.2321 C.2     
  15 N15           -3.2832     4.3125     1.2952 N.2     
  16 C16           -2.6439     4.1504     0.1571 C.2     
  17 C17           -3.3534     4.5065    -0.9342 C.2     
  18 C18           -2.5937     5.4069    -4.5002 C.ar    
  19 C19           -3.0418     5.5206    -3.2020 C.ar    
  20 C20           -2.8899     4.4314    -2.3335 C.ar    
  21 C21           -2.2852     3.2692    -2.8307 C.ar    
  22 C22           -1.8671     3.2432    -4.1435 C.ar    
  23 N23           -2.0293     4.2927    -4.9278 N.ar    
  24 N24           -5.3069     5.0188     2.3247 N.3     
  25 C25           -6.6101     5.5542     1.9047 C.3     
  26 C26           -7.4561     5.8541     3.1449 C.3     
  27 O27           -7.5864     4.6633     3.9263 O.3     
  28 C28           -6.3362     4.1151     4.3529 C.3     
  29 C29           -5.4788     3.7976     3.1249 C.3     
  30 C30           -6.5858     2.8316     5.1474 C.3     
  31 C31           -8.8426     6.3360     2.7132 C.3     
  32 H32            1.8796    -2.7068    -0.2982 H       
  33 H33           -2.3365    -2.5989     0.3802 H       
  34 H34           -2.2827    -0.1409     0.3802 H       
  35 H35           -2.1253     1.6843     0.1352 H       
  36 H36            2.7402     0.2363     0.5932 H       
  37 H37            3.0157    -0.7066    -0.8912 H       
  38 H38            2.1522     0.8478    -0.9716 H       
  39 H39           -0.6658     3.9656     0.9362 H       
  40 H40           -0.7672     3.9601    -0.8408 H       
  41 H41           -2.7103     6.2392    -5.1786 H       
  42 H42           -3.5023     6.4353    -2.8590 H       
  43 H43           -2.1486     2.4071    -2.1946 H       
  44 H44           -1.3999     2.3521    -4.5361 H       
  45 H45           -6.4603     6.4718     1.3357 H       
  46 H46           -7.1223     4.8195     1.2836 H       
  47 H47           -6.9698     6.6278     3.7390 H       
  48 H48           -5.8173     4.8383     4.9820 H       
  49 H49           -5.9730     3.0348     2.5232 H       
  50 H50           -4.5033     3.4329     3.4466 H       
  51 H51           -7.1030     2.1085     4.5167 H       
  52 H52           -5.6327     2.4142     5.4722 H       
  53 H53           -7.1995     3.0576     6.0194 H       
  54 H54           -9.3286     5.5607     2.1210 H       
  55 H55           -9.4445     6.5493     3.5966 H       
  56 H56           -8.7424     7.2413     2.1145 H       
@<TRIPOS>BOND
   1    1    2 1
   2    1    8 2
   3    1    9 am
   4    2    3 ar
   5    2    7 ar
   6    3    4 ar
   7    3   10 1
   8    4    5 ar
   9    4   32 1
  10    5    6 ar
  11    5   11 1
  12    6    7 ar
  13    6   33 1
  14    7   34 1
  15    9   12 1
  16    9   35 1
  17   10   36 1
  18   10   37 1
  19   10   38 1
  20   12   16 1
  21   12   39 1
  22   12   40 1
  23   13   14 1
  24   13   17 1
  25   14   15 2
  26   14   24 1
  27   15   16 1
  28   16   17 2
  29   17   20 1
  30   18   19 ar
  31   18   23 ar
  32   18   41 1
  33   19   20 ar
  34   19   42 1
  35   20   21 ar
  36   21   22 ar
  37   21   43 1
  38   22   23 ar
  39   22   44 1
  40   24   25 1
  41   24   29 1
  42   25   26 1
  43   25   45 1
  44   25   46 1
  45   26   27 1
  46   26   31 1
  47   26   47 1
  48   27   28 1
  49   28   29 1
  50   28   30 1
  51   28   48 1
  52   29   49 1
  53   29   50 1
  54   30   51 1
  55   30   52 1
  56   30   53 1
  57   31   54 1
  58   31   55 1
  59   31   56 1

#	End of record

