#	Name: ASD06170353
#	Creating user name:	WinNT
#	Creation time:	15. 06. 2019 21:05

#	Modifying user name:	WinNT
#	Modification time:	15. 06. 2019 21:05

#	Program:	/corina/corina34_cracker 3.40 0067  02.08.2006

@<TRIPOS>MOLECULE
ASD06170353
  67   71    0    0    0
SMALL
NO_CHARGES


@<TRIPOS>ATOM
   1 N1            -0.0710     1.3626     0.0327 N.am    
   2 N2            -0.0996     0.0065     0.3713 N.pl3   
   3 C3             1.1436    -0.5077     0.3112 C.2     
   4 C4             2.0150     0.4951    -0.0669 C.2     
   5 C5             1.2031     1.7095    -0.2442 C.2     
   6 C6             3.4657     0.3733    -0.2548 C.2     
   7 O7             4.0149    -0.6974    -0.0735 O.2     
   8 N8             4.1893     1.4473    -0.6282 N.am    
   9 C9            -1.3034    -0.7440     0.7371 C.3     
  10 C10            5.5878     1.3779    -0.6447 C.ar    
  11 C11            6.2201     0.1588    -0.8496 C.ar    
  12 C12            8.3545     1.2434    -0.6779 C.ar    
  13 C13            7.7217     2.4614    -0.4791 C.ar    
  14 C14            6.3425     2.5292    -0.4620 C.ar    
  15 O15            9.7128     1.1777    -0.6947 O.3     
  16 N16           11.5577     0.6181    -4.3405 N.ar    
  17 C17           12.3296     0.8194    -3.2659 C.ar    
  18 C18           11.7357     1.0160    -1.9952 C.ar    
  19 C19           10.3264     0.9948    -1.8894 C.ar    
  20 C20            9.5921     0.7813    -3.0430 C.ar    
  21 C21           10.2484     0.5966    -4.2531 C.ar    
  22 O22            1.6024     2.8102    -0.5755 O.2     
  23 C23           -1.1786     2.2154    -0.0165 C.ar    
  24 C24           12.5466     1.2259    -0.8703 C.ar    
  25 C25           13.9008     1.2398    -1.0046 C.ar    
  26 C26           14.4976     1.0470    -2.2539 C.ar    
  27 C27           13.7291     0.8390    -3.3768 C.ar    
  28 C28           -2.1210     2.1917     1.0033 C.ar    
  29 C29           -3.2133     3.0354     0.9519 C.ar    
  30 C30           -3.3693     3.9028    -0.1137 C.ar    
  31 C31           -2.4329     3.9285    -1.1310 C.ar    
  32 C32           -1.3352     3.0918    -1.0825 C.ar    
  33 O33           15.8516     1.0659    -2.3611 O.3     
  34 C34           16.5945     1.2871    -1.1606 C.3     
  35 C35           -1.9308    -1.3468    -0.5215 C.3     
  36 C36            1.5207    -1.9364     0.6071 C.3     
  37 C37            7.6010     0.0914    -0.8662 C.ar    
  38 F38            8.2174    -1.0942    -1.0650 F       
  39 O39           -1.0392    -2.3124    -1.0824 O.3     
  40 C40           -3.2533    -2.0246    -0.1576 C.3     
  41 H41            3.7414     2.2683    -0.8855 H       
  42 H42           -1.0372    -1.5432     1.4288 H       
  43 H43           -2.0185    -0.0737     1.2142 H       
  44 H44            5.6337    -0.7363    -0.9955 H       
  45 H45            8.3079     3.3574    -0.3373 H       
  46 H46            5.8505     3.4781    -0.3068 H       
  47 H47            8.5132     0.7579    -3.0023 H       
  48 H48            9.6651     0.4311    -5.1468 H       
  49 H49           12.0974     1.3765     0.1002 H       
  50 H50           14.5216     1.4022    -0.1359 H       
  51 H51           14.1999     0.6907    -4.3374 H       
  52 H52           -2.0001     1.5140     1.8355 H       
  53 H53           -3.9465     3.0175     1.7447 H       
  54 H54           -4.2244     4.5613    -0.1517 H       
  55 H55           -2.5580     4.6066    -1.9622 H       
  56 H56           -0.6041     3.1126    -1.8771 H       
  57 H57           16.3207     2.2533    -0.7368 H       
  58 H58           16.3685     0.4984    -0.4430 H       
  59 H59           17.6608     1.2784    -1.3864 H       
  60 H60           -2.1155    -0.5568    -1.2494 H       
  61 H61            1.4631    -2.5245    -0.3088 H       
  62 H62            2.5379    -1.9703     0.9974 H       
  63 H63            0.8338    -2.3477     1.3468 H       
  64 H64           -0.8298    -3.0462    -0.4885 H       
  65 H65           -3.9334    -1.2880     0.2703 H       
  66 H66           -3.7002    -2.4540    -1.0543 H       
  67 H67           -3.0686    -2.8145     0.5703 H       
@<TRIPOS>BOND
   1    1    2 1
   2    1    5 am
   3    1   23 1
   4    2    3 1
   5    2    9 1
   6    3    4 2
   7    3   36 1
   8    4    5 1
   9    4    6 1
  10    5   22 2
  11    6    7 2
  12    6    8 am
  13    8   10 1
  14    8   41 1
  15    9   35 1
  16    9   42 1
  17    9   43 1
  18   10   11 ar
  19   10   14 ar
  20   11   37 ar
  21   11   44 1
  22   12   13 ar
  23   12   15 1
  24   12   37 ar
  25   13   14 ar
  26   13   45 1
  27   14   46 1
  28   15   19 1
  29   16   17 ar
  30   16   21 ar
  31   17   18 ar
  32   17   27 ar
  33   18   19 ar
  34   18   24 ar
  35   19   20 ar
  36   20   21 ar
  37   20   47 1
  38   21   48 1
  39   23   28 ar
  40   23   32 ar
  41   24   25 ar
  42   24   49 1
  43   25   26 ar
  44   25   50 1
  45   26   27 ar
  46   26   33 1
  47   27   51 1
  48   28   29 ar
  49   28   52 1
  50   29   30 ar
  51   29   53 1
  52   30   31 ar
  53   30   54 1
  54   31   32 ar
  55   31   55 1
  56   32   56 1
  57   33   34 1
  58   34   57 1
  59   34   58 1
  60   34   59 1
  61   35   39 1
  62   35   40 1
  63   35   60 1
  64   36   61 1
  65   36   62 1
  66   36   63 1
  67   37   38 1
  68   39   64 1
  69   40   65 1
  70   40   66 1
  71   40   67 1

#	End of record

