#	Name: ASD08070068
#	Creating user name:	WinNT
#	Creation time:	15. 06. 2019 21:14

#	Modifying user name:	WinNT
#	Modification time:	15. 06. 2019 21:14

#	Program:	/corina/corina34_cracker 3.40 0067  02.08.2006

@<TRIPOS>MOLECULE
ASD08070068
  45   45    0    0    0
SMALL
NO_CHARGES


@<TRIPOS>ATOM
   1 C1            -0.0166     1.3720     0.0096 C.ar    
   2 C2             0.0021    -0.0041     0.0020 C.ar    
   3 C3             1.1809     2.0836     0.0020 C.ar    
   4 C4             2.3974     1.4049    -0.0133 C.ar    
   5 C5             2.4220     0.0396    -0.0213 C.ar    
   6 C6             1.2247    -0.6826    -0.0133 C.ar    
   7 C7             1.2512    -2.1571    -0.0225 C.2     
   8 O8             2.3150    -2.7460    -0.0370 O.2     
   9 C9             0.2724    -4.8330     1.4087 C.3     
  10 C10            0.1227    -4.3167    -0.0238 C.3     
  11 N11            0.0963    -2.8520    -0.0147 N.am    
  12 C12           -1.1815    -4.8465    -0.6232 C.3     
  13 S13            1.1570     3.8454     0.0111 S.3     
  14 C14            3.6899     2.1797    -0.0215 C.3     
  15 C15           -1.2714    -4.4342    -2.0939 C.3     
  16 C16           -0.6158     4.2293     0.0296 C.3     
  17 O17           -0.8872    -4.4804     2.1657 O.3     
  18 C18           -0.8489    -4.9181     3.5254 C.3     
  19 C19           -0.1549    -5.1189    -2.8847 C.3     
  20 C20           -2.6292    -4.8553    -2.6595 C.3     
  21 H21           -0.9588     1.8997     0.0169 H       
  22 H22           -0.9249    -0.5583     0.0082 H       
  23 H23            3.3672    -0.4829    -0.0335 H       
  24 H24            0.3812    -5.9175     1.3945 H       
  25 H25            1.1547    -4.3853     1.8659 H       
  26 H26            0.9648    -4.6612    -0.6241 H       
  27 H27           -0.7522    -2.3822    -0.0031 H       
  28 H28           -1.2002    -5.9338    -0.5489 H       
  29 H29           -2.0279    -4.4304    -0.0768 H       
  30 H30            4.0114     2.3610     1.0042 H       
  31 H31            4.4542     1.6060    -0.5457 H       
  32 H32            3.5391     3.1326    -0.5288 H       
  33 H33           -1.1636    -3.3526    -2.1752 H       
  34 H34           -0.7534     5.3106     0.0363 H       
  35 H35           -1.0880     3.8085    -0.8581 H       
  36 H36           -1.0713     3.7995     0.9217 H       
  37 H37           -1.7642    -4.6118     4.0317 H       
  38 H38           -0.7633    -6.0044     3.5552 H       
  39 H39            0.0102    -4.4722     4.0266 H       
  40 H40           -0.2190    -4.8252    -3.9324 H       
  41 H41            0.8124    -4.8189    -2.4817 H       
  42 H42           -0.2628    -6.2005    -2.8034 H       
  43 H43           -3.4246    -4.3674    -2.0961 H       
  44 H44           -2.6933    -4.5615    -3.7072 H       
  45 H45           -2.7371    -5.9369    -2.5782 H       
@<TRIPOS>BOND
   1    1    2 ar
   2    1    3 ar
   3    1   21 1
   4    2    6 ar
   5    2   22 1
   6    3    4 ar
   7    3   13 1
   8    4    5 ar
   9    4   14 1
  10    5    6 ar
  11    5   23 1
  12    6    7 1
  13    7    8 2
  14    7   11 am
  15    9   17 1
  16    9   10 1
  17    9   24 1
  18    9   25 1
  19   10   12 1
  20   10   11 1
  21   10   26 1
  22   11   27 1
  23   12   15 1
  24   12   28 1
  25   12   29 1
  26   13   16 1
  27   14   30 1
  28   14   31 1
  29   14   32 1
  30   15   19 1
  31   15   20 1
  32   15   33 1
  33   16   34 1
  34   16   35 1
  35   16   36 1
  36   17   18 1
  37   18   37 1
  38   18   38 1
  39   18   39 1
  40   19   40 1
  41   19   41 1
  42   19   42 1
  43   20   43 1
  44   20   44 1
  45   20   45 1

#	End of record

