#	Name: ASD04880511
#	Creating user name:	WinNT
#	Creation time:	15. 06. 2019 20:53

#	Modifying user name:	WinNT
#	Modification time:	15. 06. 2019 20:53

#	Program:	/corina/corina34_cracker 3.40 0067  02.08.2006

@<TRIPOS>MOLECULE
ASD04880511
  51   54    0    0    0
SMALL
NO_CHARGES


@<TRIPOS>ATOM
   1 C1             1.3705    -0.5558     0.2842 C.2     
   2 O2             1.5653    -1.7556     0.3160 O.2     
   3 C3             2.5128     0.3758     0.1762 C.ar    
   4 C4             3.8203    -0.1059     0.2603 C.ar    
   5 C5             4.8834     0.7706     0.1580 C.ar    
   6 C6             4.6524     2.1246    -0.0270 C.ar    
   7 C7             3.3586     2.6062    -0.1108 C.ar    
   8 C8             2.2887     1.7400    -0.0159 C.ar    
   9 F9             6.1498     0.3072     0.2390 F       
  10 N10            0.1125    -0.0756     0.3418 N.am    
  11 N11           -0.2383     1.2703     0.4259 N.2     
  12 C12           -1.5088     1.4815     0.4682 C.2     
  13 C13           -2.2425     0.1606     0.4114 C.3     
  14 C14           -1.1151    -0.8868     0.3196 C.3     
  15 C15           -2.1483     2.8066     0.5580 C.ar    
  16 C16           -1.3629     3.9619     0.6037 C.ar    
  17 C17           -1.9676     5.2016     0.6875 C.ar    
  18 C18           -3.3574     5.2980     0.7262 C.ar    
  19 C19           -4.1371     4.1518     0.6809 C.ar    
  20 C20           -3.5408     2.9112     0.5919 C.ar    
  21 O21           -3.9503     6.5184     0.8090 O.3     
  22 C22           -5.3786     6.5447     0.8447 C.3     
  23 O23           -1.2065     6.3277     0.7325 O.3     
  24 C24            0.2106     6.1513     0.7838 C.3     
  25 C25            0.9180     7.4071     0.2451 C.3     
  26 C26            1.7818     7.9557     1.3995 C.3     
  27 C27            2.0256     6.7260     2.3091 C.3     
  28 C28            0.6693     5.9806     2.2468 C.3     
  29 H29            4.0004    -1.1609     0.4051 H       
  30 H30            5.4862     2.8066    -0.1057 H       
  31 H31            3.1853     3.6624    -0.2547 H       
  32 H32            1.2793     2.1177    -0.0861 H       
  33 H33           -2.8339     0.0126     1.3150 H       
  34 H34           -2.8767     0.1133    -0.4738 H       
  35 H35           -1.1865    -1.4492    -0.6114 H       
  36 H36           -1.1468    -1.5581     1.1778 H       
  37 H37           -0.2860     3.8859     0.5740 H       
  38 H38           -5.2137     4.2312     0.7115 H       
  39 H39           -4.1505     2.0206     0.5523 H       
  40 H40           -5.7306     5.9885     1.7136 H       
  41 H41           -5.7214     7.5773     0.9110 H       
  42 H42           -5.7732     6.0884    -0.0631 H       
  43 H43            0.4995     5.2793     0.1970 H       
  44 H44            1.5508     7.1445    -0.6026 H       
  45 H45            0.1803     8.1512    -0.0555 H       
  46 H46            2.7272     8.3417     1.0184 H       
  47 H47            1.2433     8.7318     1.9434 H       
  48 H48            2.8270     6.1038     1.9108 H       
  49 H49            2.2482     7.0383     3.3294 H       
  50 H50           -0.0489     6.4376     2.9275 H       
  51 H51            0.8028     4.9251     2.4840 H       
@<TRIPOS>BOND
   1    1    2 2
   2    1    3 1
   3    1   10 am
   4    3    4 ar
   5    3    8 ar
   6    4    5 ar
   7    4   29 1
   8    5    6 ar
   9    5    9 1
  10    6    7 ar
  11    6   30 1
  12    7    8 ar
  13    7   31 1
  14    8   32 1
  15   10   11 1
  16   10   14 1
  17   11   12 2
  18   12   13 1
  19   12   15 1
  20   13   14 1
  21   13   33 1
  22   13   34 1
  23   14   35 1
  24   14   36 1
  25   15   16 ar
  26   15   20 ar
  27   16   17 ar
  28   16   37 1
  29   17   18 ar
  30   17   23 1
  31   18   19 ar
  32   18   21 1
  33   19   20 ar
  34   19   38 1
  35   20   39 1
  36   21   22 1
  37   22   40 1
  38   22   41 1
  39   22   42 1
  40   23   24 1
  41   24   25 1
  42   24   28 1
  43   24   43 1
  44   25   26 1
  45   25   44 1
  46   25   45 1
  47   26   27 1
  48   26   46 1
  49   26   47 1
  50   27   28 1
  51   27   48 1
  52   27   49 1
  53   28   50 1
  54   28   51 1

#	End of record

