#	Name: ASD04910243
#	Creating user name:	WinNT
#	Creation time:	15. 06. 2019 20:55

#	Modifying user name:	WinNT
#	Modification time:	15. 06. 2019 20:55

#	Program:	/corina/corina34_cracker 3.40 0067  02.08.2006

@<TRIPOS>MOLECULE
ASD04910243
  32   34    0    0    0
SMALL
NO_CHARGES


@<TRIPOS>ATOM
   1 C1            -0.0525     1.2576     0.2519 C.ar    
   2 C2             0.1786    -0.0867     0.5066 C.ar    
   3 C3             1.4191    -0.6350     0.2494 C.ar    
   4 C4             2.4359     0.1592    -0.2644 C.ar    
   5 C5             2.2041     1.5046    -0.5191 C.ar    
   6 C6             0.9631     2.0517    -0.2615 C.ar    
   7 O7            -1.2758     1.7956     0.5001 O.3     
   8 C8             3.3071     2.3673    -1.0762 C.3     
   9 C9             1.6700    -2.0949     0.5265 C.3     
  10 N10            4.9081     0.0895    -0.0230 N.2     
  11 N11            3.6956    -0.3966    -0.5253 N.pl3   
  12 C12            3.9182    -1.4749    -1.2936 C.2     
  13 C13            5.2802    -1.7127    -1.3070 C.ar    
  14 C14            6.1160    -2.6730    -1.9159 C.ar    
  15 C15            7.4567    -2.6162    -1.7153 C.ar    
  16 C16            8.0387    -1.6283    -0.9180 C.ar    
  17 C17            7.2943    -0.6751    -0.3029 C.ar    
  18 C18            5.8929    -0.6716    -0.4668 C.ar    
  19 H19           -0.6122    -0.7041     0.9065 H       
  20 H20            0.7826     3.0979    -0.4599 H       
  21 H21           -1.3752     2.1508     1.3940 H       
  22 H22            3.3360     2.2645    -2.1609 H       
  23 H23            3.1209     3.4089    -0.8147 H       
  24 H24            4.2621     2.0523    -0.6558 H       
  25 H25            1.5217    -2.6690    -0.3880 H       
  26 H26            2.6936    -2.2275     0.8769 H       
  27 H27            0.9761    -2.4440     1.2912 H       
  28 H28            3.1667    -2.0539    -1.8096 H       
  29 H29            5.6914    -3.4478    -2.5370 H       
  30 H30            8.0903    -3.3546    -2.1841 H       
  31 H31            9.1107    -1.6230    -0.7871 H       
  32 H32            7.7717     0.0768     0.3080 H       
@<TRIPOS>BOND
   1    1    2 ar
   2    1    6 ar
   3    1    7 1
   4    2    3 ar
   5    2   19 1
   6    3    4 ar
   7    3    9 1
   8    4    5 ar
   9    4   11 1
  10    5    6 ar
  11    5    8 1
  12    6   20 1
  13    7   21 1
  14    8   22 1
  15    8   23 1
  16    8   24 1
  17    9   25 1
  18    9   26 1
  19    9   27 1
  20   10   11 1
  21   10   18 2
  22   11   12 1
  23   12   13 2
  24   12   28 1
  25   13   14 ar
  26   13   18 ar
  27   14   15 ar
  28   14   29 1
  29   15   16 ar
  30   15   30 1
  31   16   17 ar
  32   16   31 1
  33   17   18 ar
  34   17   32 1

#	End of record

