#	Name: ASD01911125
#	Creating user name:	WinNT
#	Creation time:	15. 06. 2019 19:57

#	Modifying user name:	WinNT
#	Modification time:	15. 06. 2019 19:57

#	Program:	/corina/corina34_cracker 3.40 0067  02.08.2006

@<TRIPOS>MOLECULE
ASD01911125
  44   47    0    0    0
SMALL
NO_CHARGES


@<TRIPOS>ATOM
   1 C1             0.2400     1.1022     0.1025 C.2     
   2 O2             1.2499     1.7770     0.1382 O.2     
   3 C3             0.3365    -0.3763     0.1031 C.ar    
   4 C4             1.5778    -0.9875    -0.0594 C.ar    
   5 C5             1.6522    -2.3714    -0.0567 C.ar    
   6 C6             0.4821    -3.0962     0.1085 C.ar    
   7 C7            -0.7182    -2.4218     0.2648 C.ar    
   8 N8            -0.7595    -1.1072     0.2638 N.ar    
   9 N9            -0.9681     1.6986     0.0680 N.am    
  10 C10           -2.1876     0.9077    -0.1468 C.3     
  11 C11           -2.9642     1.5085    -1.3227 C.3     
  12 C12           -3.2174     2.9940    -1.0560 C.3     
  13 C13           -1.8797     3.7276    -0.9354 C.3     
  14 C14           -1.0913     3.1513     0.2505 C.3     
  15 O15           -5.2528     0.7145    -0.5584 O.3     
  16 N16           -6.1806     0.0662    -0.9943 N.2     
  17 C17           -5.9179    -0.3353    -2.2076 C.2     
  18 N18           -4.6923     0.1294    -2.5266 N.2     
  19 C19           -4.2818     0.7928    -1.4734 C.2     
  20 O20           -6.7265    -1.0815    -3.0004 O.3     
  21 C21           -7.8947    -1.5345    -2.4741 C.ar    
  22 C22           -8.2944    -1.1206    -1.2118 C.ar    
  23 C23           -9.4840    -1.5833    -0.6785 C.ar    
  24 C24          -10.2746    -2.4588    -1.4047 C.ar    
  25 C25           -9.8766    -2.8713    -2.6623 C.ar    
  26 C26           -8.6919    -2.4069    -3.2008 C.ar    
  27 F27           -9.8746    -1.1816     0.5508 F       
  28 H28            2.4694    -0.3914    -0.1860 H       
  29 H29            2.6001    -2.8738    -0.1808 H       
  30 H30            0.5057    -4.1759     0.1149 H       
  31 H31           -1.6318    -2.9833     0.3934 H       
  32 H32           -1.9187    -0.1236    -0.3752 H       
  33 H33           -2.8046     0.9364     0.7513 H       
  34 H34           -2.3824     1.3971    -2.2378 H       
  35 H35           -3.7912     3.4182    -1.8799 H       
  36 H36           -3.7778     3.1059    -0.1279 H       
  37 H37           -1.3081     3.5954    -1.8541 H       
  38 H38           -2.0608     4.7895    -0.7687 H       
  39 H39           -1.6207     3.3592     1.1803 H       
  40 H40           -0.0989     3.6008     0.2843 H       
  41 H41           -7.6775    -0.4383    -0.6460 H       
  42 H42          -11.2030    -2.8199    -0.9874 H       
  43 H43          -10.4945    -3.5540    -3.2267 H       
  44 H44           -8.3844    -2.7264    -4.1856 H       
@<TRIPOS>BOND
   1    1    2 2
   2    1    3 1
   3    1    9 am
   4    3    4 ar
   5    3    8 ar
   6    4    5 ar
   7    4   28 1
   8    5    6 ar
   9    5   29 1
  10    6    7 ar
  11    6   30 1
  12    7    8 ar
  13    7   31 1
  14    9   10 1
  15    9   14 1
  16   10   11 1
  17   10   32 1
  18   10   33 1
  19   11   12 1
  20   11   19 1
  21   11   34 1
  22   12   13 1
  23   12   35 1
  24   12   36 1
  25   13   14 1
  26   13   37 1
  27   13   38 1
  28   14   39 1
  29   14   40 1
  30   15   16 1
  31   15   19 1
  32   16   17 2
  33   17   18 1
  34   17   20 1
  35   18   19 2
  36   20   21 1
  37   21   22 ar
  38   21   26 ar
  39   22   23 ar
  40   22   41 1
  41   23   24 ar
  42   23   27 1
  43   24   25 ar
  44   24   42 1
  45   25   26 ar
  46   25   43 1
  47   26   44 1

#	End of record

