#	Name: ASD01948282
#	Creating user name:	WinNT
#	Creation time:	15. 06. 2019 20:14

#	Modifying user name:	WinNT
#	Modification time:	15. 06. 2019 20:14

#	Program:	/corina/corina34_cracker 3.40 0067  02.08.2006

@<TRIPOS>MOLECULE
ASD01948282
  45   48    0    0    0
SMALL
NO_CHARGES


@<TRIPOS>ATOM
   1 C1             1.4596     4.9425    -1.2966 C.ar    
   2 C2             1.9416     4.9474    -2.5938 C.ar    
   3 C3             3.0505     4.1907    -2.9257 C.ar    
   4 C4             3.6820     3.4269    -1.9628 C.ar    
   5 C5             3.2026     3.4190    -0.6601 C.ar    
   6 C6             2.0864     4.1806    -0.3283 C.ar    
   7 N7             4.6375     0.5034    -0.3156 N.am    
   8 C8             4.8836     1.8150    -0.0338 C.2     
   9 N9             3.8396     2.6463     0.3166 N.pl3   
  10 C10            5.6370    -0.3297    -0.6596 C.2     
  11 C11            6.9617     0.1436    -0.7340 C.2     
  12 C12            7.2260     1.4802    -0.4494 C.2     
  13 C13            6.1706     2.3198    -0.0958 C.2     
  14 N14            6.4131     3.6745     0.1973 N.am    
  15 I15            0.9887     6.1034    -4.0583 I       
  16 O16            5.3947    -1.5007    -0.9078 O.2     
  17 F17            1.6163     4.1760     0.9383 F       
  18 C18            3.2667    -0.0073    -0.2367 C.3     
  19 S19            7.9368     4.2994     0.0233 S.o2    
  20 O20            7.7991     5.6656     0.3893 O.2     
  21 O21            8.7639     3.4200     0.7727 O.2     
  22 C22            8.2884     4.1477    -1.7498 C.3     
  23 C23            9.6312     4.6822    -2.2520 C.3     
  24 C24            9.3905     3.1735    -2.1706 C.3     
  25 C25            8.0637    -0.7732    -1.1119 C.2     
  26 C26            7.8685    -2.0767    -1.3984 C.2     
  27 N27            9.3269    -0.3830    -1.2035 N.2     
  28 C28           10.1938    -1.2744    -1.5419 C.2     
  29 S29            9.4330    -2.7841    -1.7928 S.3     
  30 H30            0.5958     5.5377    -1.0396 H       
  31 H31            3.4234     4.1965    -3.9393 H       
  32 H32            4.5477     2.8362    -2.2237 H       
  33 H33            3.5473     2.6948     1.2403 H       
  34 H34            8.2351     1.8615    -0.5011 H       
  35 H35            5.6878     4.2423     0.5013 H       
  36 H36            2.7526     0.1850    -1.1784 H       
  37 H37            3.2890    -1.0805    -0.0474 H       
  38 H38            2.7384     0.4938     0.5745 H       
  39 H39            7.4273     4.2498    -2.4103 H       
  40 H40            9.6536     5.1356    -3.2429 H       
  41 H41           10.3033     5.1250    -1.5169 H       
  42 H42            9.9043     2.6236    -1.3821 H       
  43 H43            9.2546     2.6343    -3.1081 H       
  44 H44            6.9210    -2.5950    -1.3874 H       
  45 H45           11.2524    -1.0924    -1.6537 H       
@<TRIPOS>BOND
   1    1    2 ar
   2    1    6 ar
   3    1   30 1
   4    2    3 ar
   5    2   15 1
   6    3    4 ar
   7    3   31 1
   8    4    5 ar
   9    4   32 1
  10    5    6 ar
  11    5    9 1
  12    6   17 1
  13    7    8 1
  14    7   10 am
  15    7   18 1
  16    8    9 1
  17    8   13 2
  18    9   33 1
  19   10   11 1
  20   10   16 2
  21   11   12 2
  22   11   25 1
  23   12   13 1
  24   12   34 1
  25   13   14 1
  26   14   19 am
  27   14   35 1
  28   18   36 1
  29   18   37 1
  30   18   38 1
  31   19   20 2
  32   19   21 2
  33   19   22 1
  34   22   23 1
  35   22   24 1
  36   22   39 1
  37   23   24 1
  38   23   40 1
  39   23   41 1
  40   24   42 1
  41   24   43 1
  42   25   26 2
  43   25   27 1
  44   26   29 1
  45   26   44 1
  46   27   28 2
  47   28   29 1
  48   28   45 1

#	End of record

