#	Name: ASD04910223
#	Creating user name:	WinNT
#	Creation time:	15. 06. 2019 20:55

#	Modifying user name:	WinNT
#	Modification time:	15. 06. 2019 20:55

#	Program:	/corina/corina34_cracker 3.40 0067  02.08.2006

@<TRIPOS>MOLECULE
ASD04910223
  29   30    0    0    0
SMALL
NO_CHARGES


@<TRIPOS>ATOM
   1 C1            -0.0168     1.3842     0.0097 C.ar    
   2 C2             0.0021    -0.0041     0.0020 C.ar    
   3 C3             1.2282    -0.6660    -0.0132 C.ar    
   4 C4             2.3858     0.0919    -0.0202 C.ar    
   5 C5             2.2883     1.4775    -0.0118 C.ar    
   6 N6             1.1072     2.0732     0.0026 N.ar    
   7 N7            -1.1939    -0.7286     0.0100 N.pl3   
   8 N8             3.4537     2.2527    -0.0183 N.pl3   
   9 N9             4.7678     1.7674    -0.0334 N.2     
  10 C10            5.5827     2.7911    -0.0352 C.2     
  11 C11            4.8183     3.9630    -0.0212 C.2     
  12 C12            3.5122     3.6095    -0.0169 C.2     
  13 C13            7.0879     2.7201    -0.0492 C.3     
  14 C14            5.3552     5.3712    -0.0177 C.3     
  15 C15            5.6413     5.8115    -1.4548 C.3     
  16 H16           -0.9626     1.9054     0.0169 H       
  17 H17            1.2738    -1.7451    -0.0191 H       
  18 H18            3.3533    -0.3879    -0.0316 H       
  19 H19           -2.0439    -0.2615     0.0209 H       
  20 H20           -1.1735    -1.6984     0.0046 H       
  21 H21            2.6689     4.2841    -0.0107 H       
  22 H22            7.4415     2.7091    -1.0802 H       
  23 H23            7.4975     3.5889     0.4661 H       
  24 H24            7.4135     1.8110     0.4562 H       
  25 H25            4.6183     6.0398     0.4273 H       
  26 H26            6.2765     5.4073     0.5636 H       
  27 H27            4.7199     5.7754    -2.0361 H       
  28 H28            6.0296     6.8300    -1.4522 H       
  29 H29            6.3781     5.1428    -1.8998 H       
@<TRIPOS>BOND
   1    1    2 ar
   2    1    6 ar
   3    1   16 1
   4    2    3 ar
   5    2    7 1
   6    3    4 ar
   7    3   17 1
   8    4    5 ar
   9    4   18 1
  10    5    6 ar
  11    5    8 1
  12    7   19 1
  13    7   20 1
  14    8    9 1
  15    8   12 1
  16    9   10 2
  17   10   11 1
  18   10   13 1
  19   11   12 2
  20   11   14 1
  21   12   21 1
  22   13   22 1
  23   13   23 1
  24   13   24 1
  25   14   15 1
  26   14   25 1
  27   14   26 1
  28   15   27 1
  29   15   28 1
  30   15   29 1

#	End of record

