#	Name: ASD05313038
#	Creating user name:	WinNT
#	Creation time:	15. 06. 2019 20:58

#	Modifying user name:	WinNT
#	Modification time:	15. 06. 2019 20:58

#	Program:	/corina/corina34_cracker 3.40 0067  02.08.2006

@<TRIPOS>MOLECULE
ASD05313038
  37   40    0    0    0
SMALL
NO_CHARGES


@<TRIPOS>ATOM
   1 C1            -0.0722     0.8173     1.0242 C.2     
   2 C2             0.1138    -0.6190     0.5966 C.3     
   3 N3             0.9302     1.7306     1.0505 N.pl3   
   4 N4             1.4570    -0.7184    -0.0052 N.am    
   5 C5             2.5713    -0.0367     0.6708 C.3     
   6 C6             2.3168     1.4753     0.6642 C.3     
   7 N7            -0.9042     2.6403     1.7084 N.2     
   8 N8            -1.1572     1.4083     1.4269 N.2     
   9 C9             0.3718     2.8903     1.4951 C.2     
  10 C10            1.0647     4.1806     1.7019 C.ar    
  11 C11            0.3554     5.2905     2.1657 C.ar    
  12 N12            2.3673     4.2867     1.4519 N.ar    
  13 N13            0.9789     6.4389     2.3487 N.ar    
  14 C14            2.2726     6.5392     2.0937 C.ar    
  15 C15            2.9811     5.4403     1.6385 C.ar    
  16 C16            1.6574    -1.4143    -1.1419 C.2     
  17 O17            2.7491    -1.4037    -1.6766 O.2     
  18 C18            0.5501    -2.1902    -1.7381 C.ar    
  19 C19            0.3187    -2.1383    -3.1150 C.ar    
  20 C20           -0.7191    -2.8670    -3.6651 C.ar    
  21 C21           -1.5270    -3.6455    -2.8545 C.ar    
  22 C22           -1.3020    -3.6998    -1.4903 C.ar    
  23 C23           -0.2658    -2.9829    -0.9290 C.ar    
  24 Cl24          -1.0101    -2.8052    -5.3755 Cl      
  25 Cl25           1.3311    -1.1611    -4.1317 Cl      
  26 H26            0.0448    -1.2769     1.4629 H       
  27 H27           -0.6441    -0.8894    -0.1386 H       
  28 H28            2.6434    -0.3893     1.6997 H       
  29 H29            3.5019    -0.2516     0.1455 H       
  30 H30            2.4949     1.8701    -0.3360 H       
  31 H31            2.9876     1.9608     1.3731 H       
  32 H32           -0.7013     5.2092     2.3738 H       
  33 H33            2.7792     7.4810     2.2445 H       
  34 H34            4.0384     5.5269     1.4361 H       
  35 H35           -2.3369    -4.2129    -3.2887 H       
  36 H36           -1.9366    -4.3090    -0.8638 H       
  37 H37           -0.0892    -3.0307     0.1354 H       
@<TRIPOS>BOND
   1    1    2 1
   2    1    3 1
   3    1    8 2
   4    2    4 1
   5    2   26 1
   6    2   27 1
   7    3    6 1
   8    3    9 1
   9    4    5 1
  10    4   16 am
  11    5    6 1
  12    5   28 1
  13    5   29 1
  14    6   30 1
  15    6   31 1
  16    7    8 1
  17    7    9 2
  18    9   10 1
  19   10   11 ar
  20   10   12 ar
  21   11   13 ar
  22   11   32 1
  23   12   15 ar
  24   13   14 ar
  25   14   15 ar
  26   14   33 1
  27   15   34 1
  28   16   17 2
  29   16   18 1
  30   18   19 ar
  31   18   23 ar
  32   19   20 ar
  33   19   25 1
  34   20   21 ar
  35   20   24 1
  36   21   22 ar
  37   21   35 1
  38   22   23 ar
  39   22   36 1
  40   23   37 1

#	End of record

