#	Name: ASD01028140
#	Creating user name:	WinNT
#	Creation time:	15. 06. 2019 18:56

#	Modifying user name:	WinNT
#	Modification time:	15. 06. 2019 18:56

#	Program:	/corina/corina34_cracker 3.40 0067  02.08.2006

@<TRIPOS>MOLECULE
ASD01028140
  72   76    0    0    0
SMALL
NO_CHARGES


@<TRIPOS>ATOM
   1 C1             1.8620     1.4711    -0.2289 C.3     
   2 C2             2.5607     3.8682    -0.1405 C.3     
   3 C3             3.0559     2.4209    -0.1130 C.3     
   4 N4             3.2804     6.2039    -0.0509 N.am    
   5 N5             0.7519     8.2507    -0.6066 N.pl3   
   6 C6             0.6825     7.2481    -1.5815 C.ar    
   7 C7             1.8320     6.5689    -1.9635 C.ar    
   8 C8             3.1548     6.9110    -1.3278 C.3     
   9 C9            -0.5388     6.9269    -2.1647 C.ar    
  10 C10           -0.6018     5.9301    -3.1325 C.ar    
  11 C11            0.5525     5.2614    -3.5113 C.ar    
  12 C12            1.7637     5.5796    -2.9255 C.ar    
  13 O13            2.1153    11.8406     2.7036 O.3     
  14 C14            1.0516    11.0005     2.5935 C.ar    
  15 C15            0.9877    10.1252     1.5466 C.ar    
  16 C16           -0.1068     9.2600     1.4323 C.ar    
  17 C17           -0.2216     8.3341     0.3680 C.ar    
  18 N18           -1.2903     7.5487     0.3320 N.ar    
  19 O19           -1.7948     7.4272    -1.9700 O.3     
  20 C20           -2.5565     7.0099    -3.1185 C.3     
  21 O21           -1.8968     5.8035    -3.5456 O.3     
  22 C22            0.0353    11.0391     3.5581 C.ar    
  23 C23           -1.0518    10.1980     3.4685 C.ar    
  24 C24           -1.1404     9.2966     2.4008 C.ar    
  25 N25           -2.1785     8.4559     2.2682 N.ar    
  26 C26           -2.2315     7.6185     1.2599 C.ar    
  27 O27            0.1236    11.9151     4.5926 O.3     
  28 C28            3.7546     4.8180    -0.0245 C.3     
  29 C29            2.9597     6.8284     1.0996 C.2     
  30 C30            2.3572     0.0237    -0.2014 C.3     
  31 Cl31           0.9503    -1.0956    -0.3381 Cl      
  32 O32            2.9674     6.1466     2.2605 O.3     
  33 O33            2.6635     8.0068     1.0891 O.2     
  34 C34            2.6114     6.8832     3.4600 C.3     
  35 C35            2.6750     5.9632     4.6519 C.ar    
  36 C36            3.8540     5.8317     5.3615 C.ar    
  37 C37            3.9123     4.9878     6.4548 C.ar    
  38 C38            2.7914     4.2757     6.8388 C.ar    
  39 C39            1.6121     4.4079     6.1298 C.ar    
  40 C40            1.5526     5.2551     5.0391 C.ar    
  41 C41           -0.9436    11.9064     5.5430 C.3     
  42 H42            1.1821     1.6384     0.6064 H       
  43 H43            1.3386     1.6582    -1.1665 H       
  44 H44            2.0372     4.0554    -1.0781 H       
  45 H45            1.8808     4.0356     0.6949 H       
  46 H46            3.5793     2.2337     0.8246 H       
  47 H47            3.7358     2.2535    -0.9483 H       
  48 H48            1.4842     8.8867    -0.6163 H       
  49 H49            3.2076     7.9858    -1.1547 H       
  50 H50            3.9655     6.6096    -1.9913 H       
  51 H51            0.5044     4.4870    -4.2625 H       
  52 H52            2.6601     5.0563    -3.2240 H       
  53 H53            1.9946    12.6889     2.2554 H       
  54 H54            1.7777    10.1011     0.8106 H       
  55 H55           -3.5895     6.8032    -2.8385 H       
  56 H56           -2.5150     7.7671    -3.9015 H       
  57 H57           -1.8303    10.2337     4.2162 H       
  58 H58           -3.0812     6.9563     1.1835 H       
  59 H59            4.2780     4.6309     0.9131 H       
  60 H60            4.4345     4.6507    -0.8599 H       
  61 H61            3.0371    -0.1437    -1.0367 H       
  62 H62            2.8806    -0.1635     0.7362 H       
  63 H63            3.3097     7.7084     3.6003 H       
  64 H64            1.6000     7.2765     3.3581 H       
  65 H65            4.7297     6.3881     5.0615 H       
  66 H66            4.8337     4.8845     7.0087 H       
  67 H67            2.8372     3.6158     7.6925 H       
  68 H68            0.7365     3.8513     6.4296 H       
  69 H69            0.6313     5.3584     4.4852 H       
  70 H70           -1.0150    10.9195     6.0002 H       
  71 H71           -0.7489    12.6512     6.3147 H       
  72 H72           -1.8809    12.1420     5.0389 H       
@<TRIPOS>BOND
   1    1   30 1
   2    1    3 1
   3    1   42 1
   4    1   43 1
   5    2    3 1
   6    2   28 1
   7    2   44 1
   8    2   45 1
   9    3   46 1
  10    3   47 1
  11    4   28 1
  12    4   29 am
  13    4    8 1
  14    5    6 1
  15    5   17 1
  16    5   48 1
  17    6    7 ar
  18    6    9 ar
  19    7    8 1
  20    7   12 ar
  21    8   49 1
  22    8   50 1
  23    9   10 ar
  24    9   19 1
  25   10   11 ar
  26   10   21 1
  27   11   12 ar
  28   11   51 1
  29   12   52 1
  30   13   14 1
  31   13   53 1
  32   14   15 ar
  33   14   22 ar
  34   15   16 ar
  35   15   54 1
  36   16   17 ar
  37   16   24 ar
  38   17   18 ar
  39   18   26 ar
  40   19   20 1
  41   20   21 1
  42   20   55 1
  43   20   56 1
  44   22   23 ar
  45   22   27 1
  46   23   24 ar
  47   23   57 1
  48   24   25 ar
  49   25   26 ar
  50   26   58 1
  51   27   41 1
  52   28   59 1
  53   28   60 1
  54   29   32 1
  55   29   33 2
  56   30   31 1
  57   30   61 1
  58   30   62 1
  59   32   34 1
  60   34   35 1
  61   34   63 1
  62   34   64 1
  63   35   36 ar
  64   35   40 ar
  65   36   37 ar
  66   36   65 1
  67   37   38 ar
  68   37   66 1
  69   38   39 ar
  70   38   67 1
  71   39   40 ar
  72   39   68 1
  73   40   69 1
  74   41   70 1
  75   41   71 1
  76   41   72 1

#	End of record

