#	Name: ASD02038011
#	Creating user name:	WinNT
#	Creation time:	15. 06. 2019 20:16

#	Modifying user name:	WinNT
#	Modification time:	15. 06. 2019 20:16

#	Program:	/corina/corina34_cracker 3.40 0067  02.08.2006

@<TRIPOS>MOLECULE
ASD02038011
  50   53    0    0    0
SMALL
NO_CHARGES


@<TRIPOS>ATOM
   1 C1            -0.0184     1.5028     0.0103 C.ar    
   2 C2             0.0021    -0.0041     0.0020 C.3     
   3 N3             0.0219    -0.4998     1.3805 N.am    
   4 C4             0.0845    -3.6006     3.5385 C.3     
   5 N5             0.0604    -2.2820     2.8876 N.am    
   6 C6             0.0422    -1.8260     1.6194 C.2     
   7 C7            -0.0929    -3.4397     6.1008 C.3     
   8 O8            -0.8845    -2.8694     7.1449 O.3     
   9 C9            -0.5523    -3.1989     8.4216 C.ar    
  10 C10           -1.2797    -2.6802     9.4833 C.ar    
  11 C11            0.5099    -4.0579     8.6618 C.ar    
  12 C12            0.8480    -4.3934     9.9582 C.ar    
  13 C13            0.1244    -3.8703    11.0210 C.ar    
  14 C14           -0.9425    -3.0146    10.7793 C.ar    
  15 N15            0.4645    -4.2076    12.3368 N.am    
  16 C16           -0.4174    -4.0259    13.3367 C.2     
  17 C17           -1.7907    -3.4753    13.0614 C.3     
  18 C18           -1.7255    -2.4478    11.9350 C.3     
  19 O19            0.0441    -2.6111     0.6910 O.2     
  20 O20           -0.1021    -4.3095    14.4731 O.2     
  21 C21            0.0641    -1.6801     4.2294 C.3     
  22 C22           -0.6130    -2.9575     4.7451 C.3     
  23 C23            1.1695     2.2099     0.0028 C.ar    
  24 C24           -1.2250     2.1774     0.0197 C.ar    
  25 C25           -1.2444     3.5593     0.0268 C.ar    
  26 C26           -0.0559     4.2676     0.0251 C.ar    
  27 C27            1.1514     3.5919     0.0104 C.ar    
  28 Cl28          -0.0794     6.0034     0.0335 Cl      
  29 H29           -0.8878    -0.3767    -0.5053 H       
  30 H30            0.8920    -0.3525    -0.5222 H       
  31 H31            0.0204     0.1265     2.1212 H       
  32 H32           -0.5266    -4.3467     3.0306 H       
  33 H33            1.0906    -3.9578     3.7583 H       
  34 H34            0.9455    -3.1311     6.2222 H       
  35 H35           -0.1569    -4.5267     6.1488 H       
  36 H36           -2.1094    -2.0148     9.2957 H       
  37 H37            1.0726    -4.4648     7.8347 H       
  38 H38            1.6748    -5.0626    10.1450 H       
  39 H39            1.3414    -4.5751    12.5287 H       
  40 H40           -2.4544    -4.2884    12.7673 H       
  41 H41           -2.1784    -3.0016    13.9633 H       
  42 H42           -1.2339    -1.5443    12.2957 H       
  43 H43           -2.7359    -2.2046    11.6064 H       
  44 H44            1.0647    -1.5258     4.6332 H       
  45 H45           -0.5646    -0.7932     4.3090 H       
  46 H46           -1.7009    -2.9450     4.6781 H       
  47 H47            2.1118     1.6824    -0.0087 H       
  48 H48           -2.1527     1.6244     0.0211 H       
  49 H49           -2.1871     4.0862     0.0335 H       
  50 H50            2.0795     4.1442     0.0093 H       
@<TRIPOS>BOND
   1    1    2 1
   2    1   23 ar
   3    1   24 ar
   4    2    3 1
   5    2   29 1
   6    2   30 1
   7    3    6 am
   8    3   31 1
   9    4    5 1
  10    4   22 1
  11    4   32 1
  12    4   33 1
  13    5    6 am
  14    5   21 1
  15    6   19 2
  16    7    8 1
  17    7   22 1
  18    7   34 1
  19    7   35 1
  20    8    9 1
  21    9   10 ar
  22    9   11 ar
  23   10   14 ar
  24   10   36 1
  25   11   12 ar
  26   11   37 1
  27   12   13 ar
  28   12   38 1
  29   13   14 ar
  30   13   15 1
  31   14   18 1
  32   15   16 am
  33   15   39 1
  34   16   17 1
  35   16   20 2
  36   17   18 1
  37   17   40 1
  38   17   41 1
  39   18   42 1
  40   18   43 1
  41   21   22 1
  42   21   44 1
  43   21   45 1
  44   22   46 1
  45   23   27 ar
  46   23   47 1
  47   24   25 ar
  48   24   48 1
  49   25   26 ar
  50   25   49 1
  51   26   27 ar
  52   26   28 1
  53   27   50 1

#	End of record

