#	Name: ASD03091228
#	Creating user name:	WinNT
#	Creation time:	15. 06. 2019 20:30

#	Modifying user name:	WinNT
#	Modification time:	15. 06. 2019 20:30

#	Program:	/corina/corina34_cracker 3.40 0067  02.08.2006

@<TRIPOS>MOLECULE
ASD03091228
  33   35    0    0    0
SMALL
NO_CHARGES


@<TRIPOS>ATOM
   1 C1            -0.1755     1.5035    -0.5688 C.2     
   2 C2            -0.1530    -0.0033    -0.5727 C.3     
   3 O3             0.7209     2.1248    -1.0994 O.2     
   4 N4            -1.1946     2.1607     0.0195 N.am    
   5 C5            -1.1623     3.5539     0.1194 C.ar    
   6 C6            -2.3415     4.2840     0.0193 C.ar    
   7 C7            -2.3133     5.6578     0.1169 C.ar    
   8 C8            -1.0982     6.3174     0.3171 C.ar    
   9 C9             0.0845     5.5807     0.4176 C.ar    
  10 C10            0.0482     4.2068     0.3243 C.ar    
  11 O11            0.0326     8.5512     0.6136 O.3     
  12 C12           -1.0640     7.7898     0.4217 C.2     
  13 N13           -2.0965     8.5994     0.3444 N.2     
  14 N14           -1.6970     9.8150     0.4779 N.2     
  15 C15           -0.3944     9.8304     0.6457 C.2     
  16 C16            1.8293    10.9065     1.0024 C.ar    
  17 C17            0.4487    11.0289     0.8344 C.ar    
  18 C18           -0.1232    12.3068     0.8474 C.ar    
  19 C19            0.7105    13.3966     1.0271 C.ar    
  20 C20            2.0690    13.1909     1.1866 C.ar    
  21 N21            2.5805    11.9747     1.1701 N.ar    
  22 H22            0.3731    -0.3611     0.3124 H       
  23 H23           -1.1751    -0.3820    -0.5657 H       
  24 H24            0.3593    -0.3567    -1.4675 H       
  25 H25           -1.9504     1.6665     0.3735 H       
  26 H26           -3.2805     3.7734    -0.1355 H       
  27 H27           -3.2295     6.2243     0.0383 H       
  28 H28            1.0256     6.0874     0.5724 H       
  29 H29            0.9616     3.6363     0.4060 H       
  30 H30            2.2844     9.9270     0.9991 H       
  31 H31           -1.1875    12.4387     0.7200 H       
  32 H32            0.3048    14.3973     1.0423 H       
  33 H33            2.7218    14.0398     1.3267 H       
@<TRIPOS>BOND
   1    1    2 1
   2    1    3 2
   3    1    4 am
   4    2   22 1
   5    2   23 1
   6    2   24 1
   7    4    5 1
   8    4   25 1
   9    5    6 ar
  10    5   10 ar
  11    6    7 ar
  12    6   26 1
  13    7    8 ar
  14    7   27 1
  15    8    9 ar
  16    8   12 1
  17    9   10 ar
  18    9   28 1
  19   10   29 1
  20   11   12 1
  21   11   15 1
  22   12   13 2
  23   13   14 1
  24   14   15 2
  25   15   17 1
  26   16   17 ar
  27   16   21 ar
  28   16   30 1
  29   17   18 ar
  30   18   19 ar
  31   18   31 1
  32   19   20 ar
  33   19   32 1
  34   20   21 ar
  35   20   33 1

#	End of record

