#	Name: ASD00431057
#	Creating user name:	WinNT
#	Creation time:	15. 06. 2019 18:35

#	Modifying user name:	WinNT
#	Modification time:	15. 06. 2019 18:35

#	Program:	/corina/corina34_cracker 3.40 0067  02.08.2006

@<TRIPOS>MOLECULE
ASD00431057
  52   55    0    0    0
SMALL
NO_CHARGES


@<TRIPOS>ATOM
   1 C1            -0.0162     1.3418     0.0094 C.2     
   2 C2             0.0021    -0.0041     0.0020 C.2     
   3 C3            -1.4486    -0.4434     0.0141 C.3     
   4 C4            -2.2138     0.8650     0.0287 C.2     
   5 N5            -1.2848     1.8397     0.0301 N.am    
   6 O6            -3.4181     1.0053     0.0414 O.2     
   7 C7            -1.7788    -1.2467    -1.2455 C.3     
   8 C8            -3.1875    -1.7736    -1.1504 C.2     
   9 O9            -3.6957    -2.5105    -2.1469 O.3     
  10 O10           -3.8607    -1.5307    -0.1718 O.2     
  11 N11           -4.8391    -2.9081    -2.0131 N.am    
  12 C12           -5.9026    -2.2095    -2.4294 C.2     
  13 C13           -5.1357    -4.0824    -1.4426 C.2     
  14 C14           -6.6375    -4.2672    -1.4355 C.3     
  15 C15           -7.1628    -2.9843    -2.1114 C.3     
  16 O16           -4.3286    -4.8729    -1.0017 O.2     
  17 O17           -5.8623    -1.1270    -2.9745 O.2     
  18 C18           -1.6012     3.2700     0.0428 C.3     
  19 C19           -1.7013     3.7498     1.4679 C.ar    
  20 C20           -0.5773     4.2281     2.1151 C.ar    
  21 C21           -0.6670     4.6700     3.4251 C.ar    
  22 C22           -1.8917     4.6309     4.0870 C.ar    
  23 C23           -3.0139     4.1499     3.4322 C.ar    
  24 C24           -2.9182     3.7159     2.1232 C.ar    
  25 O25            0.2722     5.1787     4.2751 O.3     
  26 C26           -0.4701     5.8296     5.3232 C.3     
  27 O27           -1.7199     5.1151     5.3517 O.3     
  28 C28            1.2231     2.1991     0.0022 C.3     
  29 C29            1.1442    -0.8396    -0.0142 C.2     
  30 O30            2.2573    -0.3483    -0.0226 O.2     
  31 O31            0.9987    -2.1811    -0.0204 O.3     
  32 C32            2.1945    -2.9632    -0.0369 C.3     
  33 H33           -1.6660    -1.0253     0.9097 H       
  34 H34           -1.6900    -0.6030    -2.1206 H       
  35 H35           -1.0840    -2.0816    -1.3365 H       
  36 H36           -6.9185    -5.1463    -2.0154 H       
  37 H37           -7.0096    -4.3453    -0.4139 H       
  38 H38           -7.7965    -2.4215    -1.4260 H       
  39 H39           -7.7049    -3.2267    -3.0254 H       
  40 H40           -0.8137     3.8209    -0.4716 H       
  41 H41           -2.5517     3.4364    -0.4642 H       
  42 H42            0.3712     4.2569     1.5995 H       
  43 H43           -3.9650     4.1185     3.9430 H       
  44 H44           -3.7940     3.3416     1.6142 H       
  45 H45            0.0485     5.7325     6.2769 H       
  46 H46           -0.6347     6.8795     5.0807 H       
  47 H47            2.1065     1.5607    -0.0101 H       
  48 H48            1.2209     2.8335    -0.8842 H       
  49 H49            1.2383     2.8233     0.8957 H       
  50 H50            2.7709    -2.7270    -0.9314 H       
  51 H51            2.7888    -2.7371     0.8485 H       
  52 H52            1.9361    -4.0221    -0.0403 H       
@<TRIPOS>BOND
   1    1    2 2
   2    1   28 1
   3    1    5 1
   4    2    3 1
   5    2   29 1
   6    3    4 1
   7    3    7 1
   8    3   33 1
   9    4    5 am
  10    4    6 2
  11    5   18 1
  12    7    8 1
  13    7   34 1
  14    7   35 1
  15    8    9 1
  16    8   10 2
  17    9   11 1
  18   11   12 am
  19   11   13 am
  20   12   17 2
  21   12   15 1
  22   13   14 1
  23   13   16 2
  24   14   15 1
  25   14   36 1
  26   14   37 1
  27   15   38 1
  28   15   39 1
  29   18   19 1
  30   18   40 1
  31   18   41 1
  32   19   20 ar
  33   19   24 ar
  34   20   21 ar
  35   20   42 1
  36   21   22 ar
  37   21   25 1
  38   22   23 ar
  39   22   27 1
  40   23   24 ar
  41   23   43 1
  42   24   44 1
  43   25   26 1
  44   26   27 1
  45   26   45 1
  46   26   46 1
  47   28   47 1
  48   28   48 1
  49   28   49 1
  50   29   30 2
  51   29   31 1
  52   31   32 1
  53   32   50 1
  54   32   51 1
  55   32   52 1

#	End of record

