#	Name: ASD01120370
#	Creating user name:	WinNT
#	Creation time:	15. 06. 2019 18:59

#	Modifying user name:	WinNT
#	Modification time:	15. 06. 2019 18:59

#	Program:	/corina/corina34_cracker 3.40 0067  02.08.2006

@<TRIPOS>MOLECULE
ASD01120370
  46   48    0    0    0
SMALL
NO_CHARGES


@<TRIPOS>ATOM
   1 C1            -0.0297     1.3734     0.1713 C.ar    
   2 C2             0.0049    -0.0122     0.1348 C.ar    
   3 C3             1.1845    -0.6815    -0.1110 C.ar    
   4 C4             2.3602     0.0310    -0.3266 C.ar    
   5 C5             2.3362     1.4388    -0.2923 C.ar    
   6 C6             1.1235     2.1079    -0.0398 C.ar    
   7 N7             3.6548    -0.3519    -0.5890 N.pl3   
   8 C8             4.4359     0.7829    -0.7186 C.2     
   9 C9             3.6541     1.8826    -0.5418 C.2     
  10 C10            4.1119     3.3171    -0.6020 C.3     
  11 C11            4.0957     3.7971    -2.0547 C.3     
  12 C12            4.5535     5.2316    -2.1149 C.2     
  13 O13            4.6195     5.8661    -3.2959 O.3     
  14 O14            4.8613     5.8106    -1.1000 O.2     
  15 C15            5.8753     0.7981    -1.0006 C.2     
  16 O16            6.4655     1.8572    -1.0938 O.2     
  17 O17            6.5443    -0.3626    -1.1565 O.3     
  18 N18            1.0850     3.4987    -0.0034 N.pl3   
  19 C19            1.4832     4.1797     1.1524 C.ar    
  20 C20            1.5615     5.5664     1.1497 C.ar    
  21 C21            1.9541     6.2375     2.2909 C.ar    
  22 C22            2.2706     5.5272     3.4395 C.ar    
  23 C23            2.1932     4.1422     3.4430 C.ar    
  24 C24            1.7948     3.4696     2.3047 C.ar    
  25 O25            2.6576     6.1890     4.5628 O.3     
  26 C26            2.9686     5.3945     5.7091 C.3     
  27 N27            1.2007    -2.1615    -0.1454 N.pl3   
  28 O28            0.1724    -2.7864     0.0435 O.2     
  29 O29            2.2423    -2.7542    -0.3626 O.2     
  30 H30           -0.9632     1.8823     0.3612 H       
  31 H31           -0.9026    -0.5734     0.3014 H       
  32 H32            3.9686    -1.2662    -0.6694 H       
  33 H33            3.4420     3.9376    -0.0068 H       
  34 H34            5.1246     3.3922    -0.2059 H       
  35 H35            4.7656     3.1766    -2.6499 H       
  36 H36            3.0830     3.7220    -2.4508 H       
  37 H37            4.9189     6.7855    -3.2842 H       
  38 H38            7.4916    -0.3020    -1.3410 H       
  39 H39            0.7821     3.9960    -0.7792 H       
  40 H40            1.3158     6.1196     0.2553 H       
  41 H41            2.0151     7.3158     2.2890 H       
  42 H42            2.4401     3.5900     4.3377 H       
  43 H43            1.7342     2.3913     2.3077 H       
  44 H44            2.0920     4.8148     5.9981 H       
  45 H45            3.7892     4.7179     5.4705 H       
  46 H46            3.2619     6.0449     6.5332 H       
@<TRIPOS>BOND
   1    1    2 ar
   2    1    6 ar
   3    1   30 1
   4    2    3 ar
   5    2   31 1
   6    3   27 1
   7    3    4 ar
   8    4    5 ar
   9    4    7 1
  10    5    6 ar
  11    5    9 1
  12    6   18 1
  13    7    8 1
  14    7   32 1
  15    8    9 2
  16    8   15 1
  17    9   10 1
  18   10   11 1
  19   10   33 1
  20   10   34 1
  21   11   12 1
  22   11   35 1
  23   11   36 1
  24   12   13 1
  25   12   14 2
  26   13   37 1
  27   15   16 2
  28   15   17 1
  29   17   38 1
  30   18   19 1
  31   18   39 1
  32   19   20 ar
  33   19   24 ar
  34   20   21 ar
  35   20   40 1
  36   21   22 ar
  37   21   41 1
  38   22   23 ar
  39   22   25 1
  40   23   24 ar
  41   23   42 1
  42   24   43 1
  43   25   26 1
  44   26   44 1
  45   26   45 1
  46   26   46 1
  47   27   28 2
  48   27   29 2

#	End of record

