#	Name: ASD05380104
#	Creating user name:	WinNT
#	Creation time:	15. 06. 2019 20:59

#	Modifying user name:	WinNT
#	Modification time:	15. 06. 2019 20:59

#	Program:	/corina/corina34_cracker 3.40 0067  02.08.2006

@<TRIPOS>MOLECULE
ASD05380104
  52   56    0    0    0
SMALL
NO_CHARGES


@<TRIPOS>ATOM
   1 C1            -0.1756     1.5717    -0.4557 C.ar    
   2 C2             0.0303     0.2560     0.0165 C.ar    
   3 C3             0.8944     2.3076    -0.9600 C.ar    
   4 C4             2.1509     1.7428    -0.9940 C.ar    
   5 C5             2.3568     0.4501    -0.5309 C.ar    
   6 C6             1.3127    -0.2939    -0.0281 C.ar    
   7 N7            -1.0264    -0.4417     0.5031 N.2     
   8 C8            -2.2189     0.0701     0.5449 C.2     
   9 N9            -2.5086     1.3273     0.1125 N.am    
  10 C10           -1.5363     2.1242    -0.3890 C.2     
  11 C11           -3.8234     1.8032     0.1930 C.ar    
  12 C12           -4.7034     1.5978    -0.8613 C.ar    
  13 C13           -6.4209     2.7430     0.3522 C.ar    
  14 C14           -3.3393    -0.7712     1.0999 C.3     
  15 N15           -3.1330    -2.1710     0.7203 N.pl3   
  16 C16           -4.2130    -3.0328     0.6410 C.ar    
  17 N17           -5.4438    -2.6068     0.9060 N.ar    
  18 O18           -1.7810     3.2509    -0.7794 O.2     
  19 C19           -4.0345    -4.3770     0.2729 C.ar    
  20 C20           -5.1691    -5.2038     0.2098 C.ar    
  21 N21           -6.3599    -4.6893     0.4980 N.ar    
  22 C22           -6.4800    -3.4219     0.8329 C.ar    
  23 N23           -2.9661    -5.1390    -0.0632 N.2     
  24 C24           -3.3627    -6.3511    -0.3222 C.2     
  25 N25           -4.7141    -6.4418    -0.1679 N.pl3   
  26 C26           -5.9995     2.0679    -0.7787 C.ar    
  27 C27           -5.5485     2.9441     1.4062 C.ar    
  28 C28           -4.2512     2.4764     1.3296 C.ar    
  29 C29            0.6793     3.7111    -1.4650 C.3     
  30 C30           -3.3576    -0.6538     2.6253 C.3     
  31 C31           -4.5688    -1.4063     3.1801 C.3     
  32 F32           -4.4863    -2.7549     2.8171 F       
  33 F33           -4.5856    -1.2990     4.5749 F       
  34 F34           -5.7418    -0.8531     2.6557 F       
  35 H35            2.9826     2.3103    -1.3846 H       
  36 H36            3.3480     0.0229    -0.5653 H       
  37 H37            1.4851    -1.2983     0.3296 H       
  38 H38           -4.3747     1.0713    -1.7451 H       
  39 H39           -7.4347     3.1100     0.4143 H       
  40 H40           -4.2899    -0.4217     0.6972 H       
  41 H41           -2.2395    -2.4938     0.5245 H       
  42 H42           -7.4629    -3.0343     1.0568 H       
  43 H43           -2.7166    -7.1650    -0.6161 H       
  44 H44           -5.2548    -7.2362    -0.3001 H       
  45 H45           -6.6844     1.9085    -1.5983 H       
  46 H46           -5.8805     3.4720     2.2880 H       
  47 H47           -3.5704     2.6339     2.1531 H       
  48 H48            0.7046     4.4069    -0.6264 H       
  49 H49            1.4671     3.9670    -2.1735 H       
  50 H50           -0.2895     3.7744    -1.9605 H       
  51 H51           -2.4437    -1.0848     3.0339 H       
  52 H52           -3.4219     0.3969     2.9081 H       
@<TRIPOS>BOND
   1    1    2 ar
   2    1    3 ar
   3    1   10 1
   4    2    7 1
   5    2    6 ar
   6    3    4 ar
   7    3   29 1
   8    4    5 ar
   9    4   35 1
  10    5    6 ar
  11    5   36 1
  12    6   37 1
  13    7    8 2
  14    8    9 1
  15    8   14 1
  16    9   10 am
  17    9   11 1
  18   10   18 2
  19   11   12 ar
  20   11   28 ar
  21   12   26 ar
  22   12   38 1
  23   13   26 ar
  24   13   27 ar
  25   13   39 1
  26   14   15 1
  27   14   30 1
  28   14   40 1
  29   15   16 1
  30   15   41 1
  31   16   17 ar
  32   16   19 ar
  33   17   22 ar
  34   19   20 ar
  35   19   23 1
  36   20   21 ar
  37   20   25 1
  38   21   22 ar
  39   22   42 1
  40   23   24 2
  41   24   25 1
  42   24   43 1
  43   25   44 1
  44   26   45 1
  45   27   28 ar
  46   27   46 1
  47   28   47 1
  48   29   48 1
  49   29   49 1
  50   29   50 1
  51   30   31 1
  52   30   51 1
  53   30   52 1
  54   31   32 1
  55   31   33 1
  56   31   34 1

#	End of record

