#	Name: ASD03081056
#	Creating user name:	WinNT
#	Creation time:	15. 06. 2019 20:26

#	Modifying user name:	WinNT
#	Modification time:	15. 06. 2019 20:26

#	Program:	/corina/corina34_cracker 3.40 0067  02.08.2006

@<TRIPOS>MOLECULE
ASD03081056
  17   17    0    0    0
SMALL
NO_CHARGES


@<TRIPOS>ATOM
   1 C1            -0.0180     1.4772     0.0102 C.2     
   2 C2             0.0021    -0.0041     0.0020 C.ar    
   3 C3             1.2115    -0.7060    -0.0133 C.ar    
   4 C4             1.1852    -2.0859    -0.0205 C.ar    
   5 N5             0.0409    -2.7417    -0.0136 N.ar    
   6 C6            -1.1227    -2.1187     0.0009 C.ar    
   7 C7            -1.1874    -0.7384     0.0153 C.ar    
   8 N8             1.0988     2.1425     0.0031 N.2     
   9 N9            -1.2266     2.1533     0.0196 N.pl3   
  10 O10            1.0796     3.5583     0.0109 O.3     
  11 Cl11          -2.5906    -3.0453     0.0087 Cl      
  12 H12            2.1525    -0.1760    -0.0198 H       
  13 H13            2.1144    -2.6362    -0.0323 H       
  14 H14           -2.1425    -0.2346     0.0321 H       
  15 H15           -2.0599     1.6569     0.0208 H       
  16 H16           -1.2397     3.1232     0.0249 H       
  17 H17            1.9576     3.9636     0.0047 H       
@<TRIPOS>BOND
   1    1    2 1
   2    1    8 2
   3    1    9 1
   4    2    3 ar
   5    2    7 ar
   6    3    4 ar
   7    3   12 1
   8    4    5 ar
   9    4   13 1
  10    5    6 ar
  11    6    7 ar
  12    6   11 1
  13    7   14 1
  14    8   10 1
  15    9   15 1
  16    9   16 1
  17   10   17 1

#	End of record

