#	Name: ASD01810643
#	Creating user name:	WinNT
#	Creation time:	15. 06. 2019 19:25

#	Modifying user name:	WinNT
#	Modification time:	15. 06. 2019 19:25

#	Program:	/corina/corina34_cracker 3.40 0067  02.08.2006

@<TRIPOS>MOLECULE
ASD01810643
  22   21    0    0    0
SMALL
NO_CHARGES


@<TRIPOS>ATOM
   1 N1            -0.0176     1.4498     0.0100 N.3     
   2 N2             0.0021    -0.0041     0.0020 N.3     
   3 C3             1.8077     2.1924    -1.4464 C.3     
   4 C4             1.3465     1.9948    -0.0001 C.3     
   5 C5             1.3633     3.3456     0.7220 C.3     
   6 C6             2.7726     3.9398     0.6374 C.3     
   7 C7             3.1788     4.0623    -0.8336 C.3     
   8 O8             3.1120     2.7764    -1.4535 O.3     
   9 H9            -0.5561     1.8084    -0.7643 H       
  10 H10            0.5405    -0.3627     0.7764 H       
  11 H11           -0.9349    -0.3784     0.0090 H       
  12 H12            1.8387     1.2278    -1.9531 H       
  13 H13            1.1111     2.8525    -1.9632 H       
  14 H14            2.0193     1.3021     0.5054 H       
  15 H15            0.6532     4.0221     0.2466 H       
  16 H16            1.0897     3.2036     1.7675 H       
  17 H17            2.7803     4.9264     1.1007 H       
  18 H18            3.4749     3.2873     1.1561 H       
  19 H19            2.5001     4.7468    -1.3424 H       
  20 H20            4.1974     4.4448    -0.8988 H       
  21 Cl21           9.1974     9.9264     6.7675 Cl      
  22 H22            9.1974    11.2964     6.7675 H       
@<TRIPOS>BOND
   1    1    2 1
   2    1    4 1
   3    1    9 1
   4    2   10 1
   5    2   11 1
   6    3    4 1
   7    3    8 1
   8    3   12 1
   9    3   13 1
  10    4    5 1
  11    4   14 1
  12    5    6 1
  13    5   15 1
  14    5   16 1
  15    6    7 1
  16    6   17 1
  17    6   18 1
  18    7    8 1
  19    7   19 1
  20    7   20 1
  21   21   22 1

#	End of record

