#	Name: ASD09740075
#	Creating user name:	WinNT
#	Creation time:	15. 06. 2019 21:22

#	Modifying user name:	WinNT
#	Modification time:	15. 06. 2019 21:22

#	Program:	/corina/corina34_cracker 3.40 0067  02.08.2006

@<TRIPOS>MOLECULE
ASD09740075
  26   28    0    0    0
SMALL
NO_CHARGES


@<TRIPOS>ATOM
   1 O1            -0.0144     1.2085     0.0087 O.3     
   2 N2             0.0021    -0.0041     0.0020 N.2     
   3 C3             1.2411     1.6827    -0.0008 C.2     
   4 N4             2.0454     0.6363    -0.0141 N.2     
   5 C5             1.2345    -0.4421    -0.0121 C.2     
   6 C6             1.6623    -1.8642    -0.0234 C.ar    
   7 C7             1.6456     3.1043     0.0026 C.ar    
   8 C8             0.7212    -2.8965    -0.0200 C.ar    
   9 C9             3.0167    -2.2058    -0.0435 C.ar    
  10 C10            3.3709    -3.5400    -0.0534 C.ar    
  11 N11            2.4506    -4.4846    -0.0445 N.ar    
  12 C12            1.1619    -4.2047    -0.0308 C.ar    
  13 C13            0.6763     4.1084     0.0173 C.ar    
  14 C14            1.0592     5.4336     0.0203 C.ar    
  15 C15            2.4023     5.7693     0.0083 C.ar    
  16 C16            3.3701     4.7769    -0.0068 C.ar    
  17 C17            2.9988     3.4477    -0.0032 C.ar    
  18 Cl18           2.8763     7.4393     0.0116 Cl      
  19 Cl19           5.0520     5.2068    -0.0223 Cl      
  20 H20           -0.3357    -2.6744    -0.0087 H       
  21 H21            3.7755    -1.4373    -0.0516 H       
  22 H22            4.4155    -3.8138    -0.0689 H       
  23 H23            0.4418    -5.0096    -0.0235 H       
  24 H24           -0.3719     3.8482     0.0259 H       
  25 H25            0.3096     6.2110     0.0317 H       
  26 H26            3.7532     2.6750    -0.0146 H       
@<TRIPOS>BOND
   1    1    2 1
   2    1    3 1
   3    2    5 2
   4    3    4 2
   5    3    7 1
   6    4    5 1
   7    5    6 1
   8    6    8 ar
   9    6    9 ar
  10    7   13 ar
  11    7   17 ar
  12    8   12 ar
  13    8   20 1
  14    9   10 ar
  15    9   21 1
  16   10   11 ar
  17   10   22 1
  18   11   12 ar
  19   12   23 1
  20   13   14 ar
  21   13   24 1
  22   14   15 ar
  23   14   25 1
  24   15   16 ar
  25   15   18 1
  26   16   17 ar
  27   16   19 1
  28   17   26 1

#	End of record

