#	Name: ASD05720258
#	Creating user name:	WinNT
#	Creation time:	15. 06. 2019 21:02

#	Modifying user name:	WinNT
#	Modification time:	15. 06. 2019 21:02

#	Program:	/corina/corina34_cracker 3.40 0067  02.08.2006

@<TRIPOS>MOLECULE
ASD05720258
  64   66    0    0    0
SMALL
NO_CHARGES


@<TRIPOS>ATOM
   1 C1             0.4956     1.0382     1.0965 C.2     
   2 N2             0.3990    -0.2278     0.6697 N.am    
   3 C3             1.6517    -0.6089     0.0004 C.3     
   4 C4             2.5238     0.6577     0.1001 C.3     
   5 N5             1.6699     1.6180     0.8151 N.am    
   6 O6            -0.4030     1.6108     1.6818 O.2     
   7 C7             1.3906    -0.9672    -1.4640 C.3     
   8 C8             0.5324    -2.2319    -1.5344 C.3     
   9 C9             0.6553     0.1869    -2.1482 C.3     
  10 C10            2.0440     2.9907     1.1642 C.3     
  11 C11            2.7057     3.0038     2.5436 C.3     
  12 C12            3.0965     4.4374     2.9082 C.3     
  13 O13            3.7146     4.4497     4.1966 O.3     
  14 Si14           4.1773     5.9317     4.6963 Si      
  15 C15            5.4083     6.6378     3.4893 C.3     
  16 C16            2.6888     7.0482     4.7900 C.3     
  17 C17            4.9632     5.8019     6.3804 C.3     
  18 C18            6.1855     4.8849     6.3035 C.3     
  19 C19            5.3972     7.1921     6.8492 C.3     
  20 C20            3.9522     5.2220     7.3717 C.3     
  21 C21           -1.6994    -3.1293     0.6440 C.2     
  22 N22           -0.6402    -2.3217     0.4923 N.2     
  23 C23           -0.7086    -1.0502     0.8334 C.2     
  24 C24           -1.9043    -0.5233     1.3648 C.2     
  25 C25           -2.9753    -1.3334     1.5199 C.2     
  26 N26           -2.8763    -2.6482     1.1577 N.pl3   
  27 N27           -3.7880    -3.7095     1.1958 N.2     
  28 C28           -3.2024    -4.7892     0.7293 C.2     
  29 C29           -1.8999    -4.4755     0.3679 C.2     
  30 Br30          -0.6271    -5.6664    -0.3655 Br      
  31 H31            2.1254    -1.4415     0.5204 H       
  32 H32            3.4305     0.4540     0.6697 H       
  33 H33            2.7708     1.0314    -0.8936 H       
  34 H34            2.3400    -1.1438    -1.9697 H       
  35 H35           -0.4866    -1.9971    -1.2267 H       
  36 H36            0.5252    -2.6096    -2.5568 H       
  37 H37            0.9471    -2.9899    -0.8699 H       
  38 H38            1.2667     1.0879    -2.0980 H       
  39 H39            0.4693    -0.0683    -3.1914 H       
  40 H40           -0.2941     0.3635    -1.6425 H       
  41 H41            2.7430     3.3766     0.4222 H       
  42 H42            1.1519     3.6168     1.1832 H       
  43 H43            2.0067     2.6179     3.2856 H       
  44 H44            3.5978     2.3778     2.5247 H       
  45 H45            3.7955     4.8234     2.1662 H       
  46 H46            2.2044     5.0635     2.9272 H       
  47 H47            4.9484     6.7138     2.5040 H       
  48 H48            5.7175     7.6282     3.8233 H       
  49 H49            6.2791     5.9846     3.4345 H       
  50 H50            1.9686     6.6351     5.4962 H       
  51 H51            2.9981     8.0387     5.1240 H       
  52 H52            2.2290     7.1242     3.8047 H       
  53 H53            6.9058     5.2981     5.5973 H       
  54 H54            6.6453     4.8090     7.2888 H       
  55 H55            5.8763     3.8945     5.9695 H       
  56 H56            4.5264     7.8454     6.9040 H       
  57 H57            5.8570     7.1162     7.8346 H       
  58 H58            6.1174     7.6053     6.1430 H       
  59 H59            3.6430     4.2316     7.0377 H       
  60 H60            4.4120     5.1461     8.3570 H       
  61 H61            3.0814     5.8753     7.4265 H       
  62 H62           -1.9634     0.5179     1.6456 H       
  63 H63           -3.8984    -0.9466     1.9255 H       
  64 H64           -3.6615    -5.7626     0.6390 H       
@<TRIPOS>BOND
   1    1    2 am
   2    1    5 am
   3    1    6 2
   4    2    3 1
   5    2   23 1
   6    3    4 1
   7    3    7 1
   8    3   31 1
   9    4    5 1
  10    4   32 1
  11    4   33 1
  12    5   10 1
  13    7    8 1
  14    7    9 1
  15    7   34 1
  16    8   35 1
  17    8   36 1
  18    8   37 1
  19    9   38 1
  20    9   39 1
  21    9   40 1
  22   10   11 1
  23   10   41 1
  24   10   42 1
  25   11   12 1
  26   11   43 1
  27   11   44 1
  28   12   13 1
  29   12   45 1
  30   12   46 1
  31   13   14 1
  32   14   15 1
  33   14   16 1
  34   14   17 1
  35   15   47 1
  36   15   48 1
  37   15   49 1
  38   16   50 1
  39   16   51 1
  40   16   52 1
  41   17   18 1
  42   17   20 1
  43   17   19 1
  44   18   53 1
  45   18   54 1
  46   18   55 1
  47   19   56 1
  48   19   57 1
  49   19   58 1
  50   20   59 1
  51   20   60 1
  52   20   61 1
  53   21   22 1
  54   21   26 1
  55   21   29 2
  56   22   23 2
  57   23   24 1
  58   24   25 2
  59   24   62 1
  60   25   26 1
  61   25   63 1
  62   26   27 1
  63   27   28 2
  64   28   29 1
  65   28   64 1
  66   29   30 1

#	End of record

