#	Name: ASD01900265
#	Creating user name:	WinNT
#	Creation time:	15. 06. 2019 19:51

#	Modifying user name:	WinNT
#	Modification time:	15. 06. 2019 19:51

#	Program:	/corina/corina34_cracker 3.40 0067  02.08.2006

@<TRIPOS>MOLECULE
ASD01900265
  40   42    0    0    0
SMALL
NO_CHARGES


@<TRIPOS>ATOM
   1 O1            -0.3772     2.7143    -1.0310 O.3     
   2 C2            -0.1261     1.3902    -1.0914 C.2     
   3 C3             1.2129     1.2232    -1.3007 C.2     
   4 C4             1.7744     2.5081    -1.3662 C.2     
   5 C5             0.7664     3.3917    -1.1963 C.2     
   6 C6            -1.1173     0.3180    -0.9557 C.2     
   7 O7            -0.7687    -0.8460    -1.0281 O.2     
   8 N8            -2.4144     0.6215    -0.7507 N.am    
   9 N9            -5.2625    -1.4920    -0.3460 N.am    
  10 C10           -4.6932    -0.2499    -0.4131 C.2     
  11 C11           -3.3652    -0.4070    -0.6205 C.2     
  12 C12           -3.1109    -1.7950    -0.6828 C.2     
  13 C13           -4.2878    -2.4304    -0.5119 C.2     
  14 S14           -6.8696    -1.8042    -0.0971 S.o2    
  15 O15           -6.9446    -3.1170     0.4416 O.2     
  16 O16           -7.4031    -0.6628     0.5600 O.2     
  17 C17           -7.6392    -1.8717    -1.6808 C.ar    
  18 C18           -8.1849    -0.7281    -2.2333 C.ar    
  19 C19           -8.7887    -0.7810    -3.4757 C.ar    
  20 C20           -8.8463    -1.9774    -4.1657 C.ar    
  21 C21           -8.2998    -3.1208    -3.6136 C.ar    
  22 C22           -7.6922    -3.0670    -2.3731 C.ar    
  23 C23           -7.0918    -4.3123    -1.7735 C.3     
  24 C24           -8.1221     0.5762    -1.4810 C.3     
  25 H25            1.7382     0.2845    -1.3966 H       
  26 H26            2.8163     2.7457    -1.5227 H       
  27 H27            0.8664     4.4671    -1.1941 H       
  28 H28           -2.6923     1.5490    -0.6930 H       
  29 H29           -5.2131     0.6920    -0.3176 H       
  30 H30           -2.1497    -2.2620    -0.8392 H       
  31 H31           -4.4334    -3.5005    -0.5066 H       
  32 H32           -9.2157     0.1123    -3.9070 H       
  33 H33           -9.3187    -2.0189    -5.1361 H       
  34 H34           -8.3451    -4.0556    -4.1526 H       
  35 H35           -7.8091    -4.7697    -1.0920 H       
  36 H36           -6.8462    -5.0164    -2.5685 H       
  37 H37           -6.1858    -4.0518    -1.2262 H       
  38 H38           -7.1053     0.9673    -1.5162 H       
  39 H39           -8.8033     1.2932    -1.9393 H       
  40 H40           -8.4122     0.4115    -0.4433 H       
@<TRIPOS>BOND
   1    1    2 1
   2    1    5 1
   3    2    3 2
   4    2    6 1
   5    3    4 1
   6    3   25 1
   7    4    5 2
   8    4   26 1
   9    5   27 1
  10    6    7 2
  11    6    8 am
  12    8   11 1
  13    8   28 1
  14    9   10 1
  15    9   13 1
  16    9   14 am
  17   10   11 2
  18   10   29 1
  19   11   12 1
  20   12   13 2
  21   12   30 1
  22   13   31 1
  23   14   15 2
  24   14   16 2
  25   14   17 1
  26   17   18 ar
  27   17   22 ar
  28   18   19 ar
  29   18   24 1
  30   19   20 ar
  31   19   32 1
  32   20   21 ar
  33   20   33 1
  34   21   22 ar
  35   21   34 1
  36   22   23 1
  37   23   35 1
  38   23   36 1
  39   23   37 1
  40   24   38 1
  41   24   39 1
  42   24   40 1

#	End of record

