#	Name: ASD01914913
#	Creating user name:	WinNT
#	Creation time:	15. 06. 2019 20:04

#	Modifying user name:	WinNT
#	Modification time:	15. 06. 2019 20:04

#	Program:	/corina/corina34_cracker 3.40 0067  02.08.2006

@<TRIPOS>MOLECULE
ASD01914913
  53   57    0    0    0
SMALL
NO_CHARGES


@<TRIPOS>ATOM
   1 C1            -0.0033     1.3309    -0.0212 C.2     
   2 N2             0.0140     0.0589     0.3179 N.2     
   3 C3             1.3081     1.7201    -0.3419 C.2     
   4 C4             2.1160     0.6326    -0.1826 C.2     
   5 N5             1.3320    -0.4058     0.2257 N.pl3   
   6 C6            -1.2038     2.2030    -0.0637 C.ar    
   7 C7            -2.4536     1.6889     0.2749 C.ar    
   8 C8            -3.5666     2.5042     0.2336 C.ar    
   9 C9            -3.4428     3.8292    -0.1434 C.ar    
  10 C10           -2.2043     4.3447    -0.4805 C.ar    
  11 C11           -1.0838     3.5399    -0.4367 C.ar    
  12 C12            3.5774     0.5878    -0.4114 C.ar    
  13 C13            4.1834     1.5203    -1.2534 C.ar    
  14 C14            5.5465     1.4733    -1.4627 C.ar    
  15 C15            6.3118     0.5040    -0.8394 C.ar    
  16 C16            5.7167    -0.4239    -0.0035 C.ar    
  17 C17            4.3555    -0.3836     0.2187 C.ar    
  18 C18            1.7881    -1.7672     0.5170 C.3     
  19 C19            2.0662    -1.8989     1.9923 C.2     
  20 N20            2.4998    -3.0722     2.4942 N.am    
  21 O21            1.8998    -0.9491     2.7279 O.2     
  22 C22            2.7471    -3.1250     3.9259 C.3     
  23 C23            1.6653    -3.9870     4.6035 C.3     
  24 C24            1.9879    -5.4357     4.2816 C.2     
  25 C25            1.9512    -5.9761     3.0502 C.2     
  26 C26            1.5807    -5.2248     1.7834 C.3     
  27 C27            2.6708    -4.1678     1.5540 C.3     
  28 N28            2.3544    -6.3959     5.1487 N.pl3   
  29 N29            2.5509    -7.5766     4.4155 N.2     
  30 C30            2.3074    -7.3204     3.1526 C.2     
  31 H31            1.6206     2.7043    -0.6583 H       
  32 H32           -2.5515     0.6543     0.5687 H       
  33 H33           -4.5359     2.1067     0.4959 H       
  34 H34           -4.3163     4.4635    -0.1750 H       
  35 H35           -2.1132     5.3800    -0.7742 H       
  36 H36           -0.1173     3.9435    -0.6998 H       
  37 H37            3.5869     2.2773    -1.7409 H       
  38 H38            6.0168     2.1945    -2.1147 H       
  39 H39            7.3783     0.4712    -1.0063 H       
  40 H40            6.3194    -1.1787     0.4797 H       
  41 H41            3.8920    -1.1083     0.8717 H       
  42 H42            1.0149    -2.4790     0.2281 H       
  43 H43            2.6995    -1.9730    -0.0443 H       
  44 H44            3.7282    -3.5633     4.1091 H       
  45 H45            2.7177    -2.1160     4.3371 H       
  46 H46            1.6873    -3.8317     5.6821 H       
  47 H47            0.6825    -3.7283     4.2093 H       
  48 H48            1.5456    -5.9134     0.9392 H       
  49 H49            0.6133    -4.7386     1.9086 H       
  50 H50            2.5981    -3.7862     0.5356 H       
  51 H51            3.6516    -4.6193     1.7034 H       
  52 H52            2.4635    -6.2915     6.1069 H       
  53 H53            2.3710    -8.0254     2.3369 H       
@<TRIPOS>BOND
   1    1    2 2
   2    1    3 1
   3    1    6 1
   4    2    5 1
   5    3    4 2
   6    3   31 1
   7    4    5 1
   8    4   12 1
   9    5   18 1
  10    6    7 ar
  11    6   11 ar
  12    7    8 ar
  13    7   32 1
  14    8    9 ar
  15    8   33 1
  16    9   10 ar
  17    9   34 1
  18   10   11 ar
  19   10   35 1
  20   11   36 1
  21   12   13 ar
  22   12   17 ar
  23   13   14 ar
  24   13   37 1
  25   14   15 ar
  26   14   38 1
  27   15   16 ar
  28   15   39 1
  29   16   17 ar
  30   16   40 1
  31   17   41 1
  32   18   19 1
  33   18   42 1
  34   18   43 1
  35   19   20 am
  36   19   21 2
  37   20   22 1
  38   20   27 1
  39   22   23 1
  40   22   44 1
  41   22   45 1
  42   23   24 1
  43   23   46 1
  44   23   47 1
  45   24   25 2
  46   24   28 1
  47   25   26 1
  48   25   30 1
  49   26   27 1
  50   26   48 1
  51   26   49 1
  52   27   50 1
  53   27   51 1
  54   28   29 1
  55   28   52 1
  56   29   30 2
  57   30   53 1

#	End of record

