#	Name: ASD09740239
#	Creating user name:	WinNT
#	Creation time:	15. 06. 2019 21:23

#	Modifying user name:	WinNT
#	Modification time:	15. 06. 2019 21:23

#	Program:	/corina/corina34_cracker 3.40 0067  02.08.2006

@<TRIPOS>MOLECULE
ASD09740239
  32   34    0    0    0
SMALL
NO_CHARGES


@<TRIPOS>ATOM
   1 N1            -0.0144     1.2087     0.0087 N.2     
   2 O2             0.0021    -0.0041     0.0020 O.3     
   3 C3             1.2069     1.6747    -0.0005 C.2     
   4 N4             2.0404     0.6103    -0.0141 N.2     
   5 C5             1.2640    -0.4445    -0.0124 C.2     
   6 C6             1.7097    -1.8841    -0.0239 C.3     
   7 C7             1.6044     3.1054     0.0030 C.ar    
   8 C8             1.8738    -2.3787     1.4146 C.3     
   9 C9             2.2071    -3.8809     1.4206 C.3     
  10 C10            0.6415     4.1175     0.0177 C.ar    
  11 C11            1.0544     5.4348     0.0203 C.ar    
  12 N12            2.3369     5.7421     0.0093 N.ar    
  13 C13            3.2771     4.8173    -0.0048 C.ar    
  14 C14            2.9514     3.4758    -0.0025 C.ar    
  15 C15            3.5860    -4.0237     2.0974 C.3     
  16 C16            3.7127    -2.7525     2.9733 C.3     
  17 C17            3.0619    -1.6610     2.0878 C.3     
  18 H18            0.9622    -2.4917    -0.5340 H       
  19 H19            2.6625    -1.9653    -0.5470 H       
  20 H20            0.9588    -2.1970     1.9783 H       
  21 H21            1.4543    -4.4281     1.9881 H       
  22 H22            2.2519    -4.2576     0.3988 H       
  23 H23           -0.4104     3.8730     0.0264 H       
  24 H24            0.3174     6.2241     0.0313 H       
  25 H25            4.3157     5.1135    -0.0138 H       
  26 H26            3.7264     2.7238    -0.0137 H       
  27 H27            3.6155    -4.9192     2.7181 H       
  28 H28            4.3775    -4.0513     1.3484 H       
  29 H29            3.1632    -2.8707     3.9072 H       
  30 H30            4.7598    -2.5195     3.1667 H       
  31 H31            3.7687    -1.3071     1.3373 H       
  32 H32            2.7088    -0.8323     2.7016 H       
@<TRIPOS>BOND
   1    1    2 1
   2    1    3 2
   3    2    5 1
   4    3    4 1
   5    3    7 1
   6    4    5 2
   7    5    6 1
   8    6    8 1
   9    6   18 1
  10    6   19 1
  11    7   10 ar
  12    7   14 ar
  13    8    9 1
  14    8   17 1
  15    8   20 1
  16    9   15 1
  17    9   21 1
  18    9   22 1
  19   10   11 ar
  20   10   23 1
  21   11   12 ar
  22   11   24 1
  23   12   13 ar
  24   13   14 ar
  25   13   25 1
  26   14   26 1
  27   15   16 1
  28   15   27 1
  29   15   28 1
  30   16   17 1
  31   16   29 1
  32   16   30 1
  33   17   31 1
  34   17   32 1

#	End of record

