#	Name: ASD04590309
#	Creating user name:	WinNT
#	Creation time:	15. 06. 2019 20:50

#	Modifying user name:	WinNT
#	Modification time:	15. 06. 2019 20:50

#	Program:	/corina/corina34_cracker 3.40 0067  02.08.2006

@<TRIPOS>MOLECULE
ASD04590309
  41   45    0    0    0
SMALL
NO_CHARGES


@<TRIPOS>ATOM
   1 C1            -0.0167     1.3834     0.0096 C.ar    
   2 C2             0.0021    -0.0041     0.0020 C.ar    
   3 C3             1.1863    -0.6848    -0.0129 C.ar    
   4 C4             2.3948     0.0191    -0.0207 C.ar    
   5 C5             2.3756     1.4250    -0.0129 C.ar    
   6 C6             1.1624     2.0987     0.0022 C.ar    
   7 N7             3.6952    -0.3636    -0.0355 N.2     
   8 C8             4.4665     0.6967    -0.0375 C.2     
   9 N9             3.6970     1.8290    -0.0238 N.pl3   
  10 C10            5.9437     0.6731    -0.0517 C.2     
  11 C11            6.7565    -0.4840    -0.0659 C.2     
  12 C12            8.0504    -0.0800    -0.0769 C.2     
  13 N13            8.0626     1.2789    -0.0699 N.pl3   
  14 N14            6.7358     1.7273    -0.0592 N.2     
  15 N15            6.3043    -1.8134    -0.0676 N.am    
  16 C16            7.1923    -2.8272    -0.0819 C.2     
  17 C17            6.7172    -4.2238    -0.0837 C.ar    
  18 O18            8.3851    -2.5907    -0.0934 O.2     
  19 C19            7.1657    -6.5868    -0.1131 C.ar    
  20 C20            5.8136    -6.8446    -0.0902 C.ar    
  21 C21            4.9022    -5.8000    -0.0714 C.ar    
  22 C22            5.3488    -4.4965    -0.0705 C.ar    
  23 C23            7.6427    -5.2826    -0.1044 C.ar    
  24 O24            9.0010    -5.2539    -0.1079 O.3     
  25 C25            9.5004    -6.5210    -0.5687 C.3     
  26 C26            8.3752    -7.5009    -0.1598 C.3     
  27 H27           -0.9614     1.9069     0.0169 H       
  28 H28           -0.9290    -0.5513     0.0083 H       
  29 H29            1.1893    -1.7648    -0.0184 H       
  30 H30            1.1417     3.1785     0.0079 H       
  31 H31            4.0192     2.7439    -0.0221 H       
  32 H32            8.9175    -0.7237    -0.0884 H       
  33 H33            8.8531     1.8409    -0.0750 H       
  34 H34            5.3529    -2.0021    -0.0584 H       
  35 H35            5.4610    -7.8654    -0.0915 H       
  36 H36            3.8425    -6.0079    -0.0537 H       
  37 H37            4.6378    -3.6837    -0.0592 H       
  38 H38            9.6321    -6.5139    -1.6507 H       
  39 H39           10.4342    -6.7738    -0.0665 H       
  40 H40            8.5736    -7.9348     0.8202 H       
  41 H41            8.2457    -8.2805    -0.9105 H       
@<TRIPOS>BOND
   1    1    2 ar
   2    1    6 ar
   3    1   27 1
   4    2    3 ar
   5    2   28 1
   6    3    4 ar
   7    3   29 1
   8    4    5 ar
   9    4    7 1
  10    5    6 ar
  11    5    9 1
  12    6   30 1
  13    7    8 2
  14    8    9 1
  15    8   10 1
  16    9   31 1
  17   10   11 1
  18   10   14 2
  19   11   12 2
  20   11   15 1
  21   12   13 1
  22   12   32 1
  23   13   14 1
  24   13   33 1
  25   15   16 am
  26   15   34 1
  27   16   17 1
  28   16   18 2
  29   17   22 ar
  30   17   23 ar
  31   19   20 ar
  32   19   23 ar
  33   19   26 1
  34   20   21 ar
  35   20   35 1
  36   21   22 ar
  37   21   36 1
  38   22   37 1
  39   23   24 1
  40   24   25 1
  41   25   26 1
  42   25   38 1
  43   25   39 1
  44   26   40 1
  45   26   41 1

#	End of record

