#	Name: ASD01410829
#	Creating user name:	WinNT
#	Creation time:	15. 06. 2019 19:18

#	Modifying user name:	WinNT
#	Modification time:	15. 06. 2019 19:18

#	Program:	/corina/corina34_cracker 3.40 0067  02.08.2006

@<TRIPOS>MOLECULE
ASD01410829
  98  104    0    0    0
SMALL
NO_CHARGES


@<TRIPOS>ATOM
   1 C1             0.7437     1.8819     1.9305 C.3     
   2 C2             0.1304     0.5761     2.4855 C.3     
   3 N3             0.0052     0.8264     3.9387 N.am    
   4 C4            -0.1634     2.2666     4.1484 C.3     
   5 C5            -0.0099     2.9498     2.7710 C.3     
   6 O6             2.1506     1.9338     2.1758 O.3     
   7 C7            -1.5338     2.5462     4.7096 C.2     
   8 O8            -2.3023     1.6312     4.9172 O.2     
   9 N9            -1.9053     3.8130     4.9809 N.am    
  10 C10            1.1196    -0.5825     2.3242 C.3     
  11 N11            0.5997    -1.7424     3.0552 N.3     
  12 C12            0.4832    -1.5411     4.4933 C.3     
  13 C13            0.0968    -0.1405     4.8662 C.2     
  14 O14           -0.1373     0.1236     6.0265 O.2     
  15 C15           -0.5726    -2.5040     5.0401 C.3     
  16 C16           -0.2078    -3.9371     4.6477 C.3     
  17 C17           -0.6254    -2.3905     6.5650 C.3     
  18 C18           -1.9403    -2.1473     4.4544 C.3     
  19 C19           -3.2696     4.0951     5.4340 C.3     
  20 C20           -4.3581     3.8213     4.4284 C.2     
  21 N21           -4.0377     3.4679     3.1679 N.am    
  22 O22           -5.5225     3.9190     4.7534 O.2     
  23 S23           -5.2280     3.2852     2.0312 S.o2    
  24 C24           -5.9241     4.9486     1.8333 C.3     
  25 C25           -3.5906     3.8434     6.9086 C.3     
  26 C26           -3.4678     5.2768     6.3855 C.3     
  27 C27           -7.1434     5.1003     0.9216 C.3     
  28 C28           -7.3039     5.2137     2.4389 C.3     
  29 O29           -4.5328     2.8926     0.8557 O.2     
  30 O30           -6.1716     2.4199     2.6478 O.2     
  31 C31           -4.9712     3.3412     7.2443 C.2     
  32 C32           -5.1197     2.1898     7.8513 C.2     
  33 C33            2.8850     2.7483     1.3781 C.ar    
  34 C34            4.2913     2.8230     1.5145 C.ar    
  35 C35            2.2855     3.5164     0.4152 C.ar    
  36 C36            3.0662     4.3499    -0.3962 C.ar    
  37 N37            4.3788     4.4167    -0.2580 N.ar    
  38 C38            5.0204     3.6866     0.6611 C.ar    
  39 C39            2.4051     5.1750    -1.4335 C.2     
  40 C40            3.0834     5.9991    -2.2599 C.2     
  41 C41            6.4167     3.7667     0.7989 C.ar    
  42 C42            7.0509     3.0036     1.7541 C.ar    
  43 C43            6.3213     2.1511     2.5872 C.ar    
  44 C44            4.9676     2.0592     2.4766 C.ar    
  45 Cl45           7.3365     4.8207    -0.2291 Cl      
  46 O46            8.4009     3.0802     1.8876 O.3     
  47 C47            9.0003     2.2643     2.8961 C.3     
  48 N48            1.0947     5.1657    -1.6368 N.2     
  49 C49            0.6399     5.9272    -2.5695 C.2     
  50 S50            1.9156     6.7776    -3.3247 S.3     
  51 C51           -0.8144     6.0498    -2.9451 C.3     
  52 C52           -1.2687     7.4990    -2.7593 C.3     
  53 C53           -0.9997     5.6408    -4.4077 C.3     
  54 H54            0.5289     1.9953     0.8679 H       
  55 H55           -0.8360     0.3614     2.0293 H       
  56 H56            0.6020     2.6340     4.8320 H       
  57 H57            0.5824     3.8608     2.8568 H       
  58 H58           -0.9863     3.1635     2.3362 H       
  59 H59           -1.2694     4.5379     4.8762 H       
  60 H60            1.2232    -0.8315     1.2681 H       
  61 H61            2.0887    -0.2963     2.7329 H       
  62 H62           -0.2753    -2.0552     2.6618 H       
  63 H63            1.4409    -1.7754     4.9581 H       
  64 H64            0.7666    -4.1913     5.0649 H       
  65 H65           -0.9600    -4.6231     5.0372 H       
  66 H66           -0.1702    -4.0180     3.5613 H       
  67 H67           -1.0529    -1.4272     6.8430 H       
  68 H68           -1.2441    -3.1925     6.9678 H       
  69 H69            0.3832    -2.4710     6.9704 H       
  70 H70           -1.9027    -2.2282     3.3681 H       
  71 H71           -2.6925    -2.8333     4.8440 H       
  72 H72           -2.2002    -1.1263     4.7340 H       
  73 H73           -3.1098     3.3206     2.9265 H       
  74 H74           -5.2022     5.7652     1.8483 H       
  75 H75           -2.7866     3.4679     7.5417 H       
  76 H76           -2.5832     5.8441     6.6747 H       
  77 H77           -4.3857     5.8559     6.2844 H       
  78 H78           -7.2239     6.0169     0.3372 H       
  79 H79           -7.5273     4.2006     0.4407 H       
  80 H80           -7.7934     4.3885     2.9563 H       
  81 H81           -7.4900     6.2048     2.8527 H       
  82 H82           -5.8381     3.9304     6.9845 H       
  83 H83           -6.1091     1.8299     8.0919 H       
  84 H84           -4.2527     1.6005     8.1111 H       
  85 H85            1.2145     3.4793     0.2818 H       
  86 H86            4.1522     6.1540    -2.2668 H       
  87 H87            6.8372     1.5607     3.3298 H       
  88 H88            4.4156     1.3967     3.1269 H       
  89 H89           10.0790     2.4208     2.8964 H       
  90 H90            8.5938     2.5341     3.8709 H       
  91 H91            8.7853     1.2157     2.6904 H       
  92 H92           -1.4107     5.3975    -2.3071 H       
  93 H93           -2.3206     7.5877    -3.0309 H       
  94 H94           -1.1367     7.7904    -1.7173 H       
  95 H95           -0.6725     8.1513    -3.3973 H       
  96 H96           -0.6761     4.6084    -4.5400 H       
  97 H97           -2.0516     5.7295    -4.6793 H       
  98 H98           -0.4034     6.2931    -5.0457 H       
@<TRIPOS>BOND
   1    1    2 1
   2    1    6 1
   3    1    5 1
   4    1   54 1
   5    2    3 1
   6    2   10 1
   7    2   55 1
   8    3    4 1
   9    3   13 am
  10    4    5 1
  11    4    7 1
  12    4   56 1
  13    5   57 1
  14    5   58 1
  15    6   33 1
  16    7    8 2
  17    7    9 am
  18    9   19 1
  19    9   59 1
  20   10   11 1
  21   10   60 1
  22   10   61 1
  23   11   12 1
  24   11   62 1
  25   12   13 1
  26   12   15 1
  27   12   63 1
  28   13   14 2
  29   15   16 1
  30   15   17 1
  31   15   18 1
  32   16   64 1
  33   16   65 1
  34   16   66 1
  35   17   67 1
  36   17   68 1
  37   17   69 1
  38   18   70 1
  39   18   71 1
  40   18   72 1
  41   19   20 1
  42   19   25 1
  43   19   26 1
  44   20   21 am
  45   20   22 2
  46   21   23 am
  47   21   73 1
  48   23   24 1
  49   23   29 2
  50   23   30 2
  51   24   27 1
  52   24   28 1
  53   24   74 1
  54   25   26 1
  55   25   31 1
  56   25   75 1
  57   26   76 1
  58   26   77 1
  59   27   28 1
  60   27   78 1
  61   27   79 1
  62   28   80 1
  63   28   81 1
  64   31   32 2
  65   31   82 1
  66   32   83 1
  67   32   84 1
  68   33   34 ar
  69   33   35 ar
  70   34   38 ar
  71   34   44 ar
  72   35   36 ar
  73   35   85 1
  74   36   37 ar
  75   36   39 1
  76   37   38 ar
  77   38   41 ar
  78   39   48 1
  79   39   40 2
  80   40   50 1
  81   40   86 1
  82   41   42 ar
  83   41   45 1
  84   42   43 ar
  85   42   46 1
  86   43   44 ar
  87   43   87 1
  88   44   88 1
  89   46   47 1
  90   47   89 1
  91   47   90 1
  92   47   91 1
  93   48   49 2
  94   49   50 1
  95   49   51 1
  96   51   52 1
  97   51   53 1
  98   51   92 1
  99   52   93 1
 100   52   94 1
 101   52   95 1
 102   53   96 1
 103   53   97 1
 104   53   98 1

#	End of record

