#	Name: ASD04930023
#	Creating user name:	WinNT
#	Creation time:	15. 06. 2019 20:56

#	Modifying user name:	WinNT
#	Modification time:	15. 06. 2019 20:56

#	Program:	/corina/corina34_cracker 3.40 0067  02.08.2006

@<TRIPOS>MOLECULE
ASD04930023
  47   49    0    0    0
SMALL
NO_CHARGES


@<TRIPOS>ATOM
   1 C1             0.0276     1.0603    -0.1067 C.ar    
   2 C2            -0.0757    -0.3234    -0.0956 C.ar    
   3 C3            -1.3094    -0.9358    -0.0441 C.ar    
   4 C4            -2.4665    -0.1629    -0.0023 C.ar    
   5 C5            -2.3569     1.2393    -0.0133 C.ar    
   6 C6            -1.0936     1.8395    -0.0606 C.ar    
   7 N7            -3.7050    -0.7689     0.0488 N.am    
   8 C8            -4.8413    -0.0527     0.0901 C.2     
   9 C9            -4.8079     1.4096     0.0823 C.2     
  10 C10           -3.5716     2.0597     0.0306 C.2     
  11 O11           -3.4977     3.4068     0.0218 O.3     
  12 O12           -5.9135    -0.6290     0.1342 O.2     
  13 C13           -3.7834    -2.2318     0.0579 C.3     
  14 H14            1.0018     1.5248    -0.1476 H       
  15 C15           -6.0533     2.1824     0.1276 C.2     
  16 O16           -6.0141     3.3929     0.2366 O.2     
  17 C17           -3.7540    -2.7352     1.5024 C.3     
  18 C18           -3.9609    -4.2510     1.5185 C.3     
  19 C19           -3.9315    -4.7544     2.9630 C.3     
  20 C20           -2.5786    -4.4176     3.5931 C.3     
  21 C21           -2.3717    -2.9018     3.5769 C.3     
  22 C22           -2.4010    -2.3984     2.1324 C.3     
  23 O23           -7.2420     1.5506     0.0485 O.3     
  24 C24           -9.6759     1.4922    -0.0032 C.3     
  25 C25           -8.4334     2.3790     0.0998 C.3     
  26 H26            0.8196    -0.9266    -0.1279 H       
  27 H27           -1.3784    -2.0135    -0.0366 H       
  28 H28           -1.0056     2.9159    -0.0692 H       
  29 H29           -4.3567     3.8474    -0.0331 H       
  30 H30           -4.7110    -2.5489    -0.4186 H       
  31 H31           -2.9349    -2.6444    -0.4880 H       
  32 H32           -4.5496    -2.2538     2.0711 H       
  33 H33           -4.9248    -4.4910     1.0696 H       
  34 H34           -3.1653    -4.7324     0.9498 H       
  35 H35           -4.7271    -4.2731     3.5318 H       
  36 H36           -4.0789    -5.8344     2.9745 H       
  37 H37           -2.5577    -4.7762     4.6222 H       
  38 H38           -1.7830    -4.8990     3.0243 H       
  39 H39           -3.1672    -2.4204     4.1457 H       
  40 H40           -1.4078    -2.6618     4.0258 H       
  41 H41           -1.6055    -2.8797     1.5637 H       
  42 H42           -2.2537    -1.3184     2.1209 H       
  43 H43           -9.6544     0.9446    -0.9454 H       
  44 H44           -9.6883     0.7862     0.8272 H       
  45 H45          -10.5703     2.1140     0.0353 H       
  46 H46           -8.4549     2.9266     1.0420 H       
  47 H47           -8.4211     3.0850    -0.7305 H       
@<TRIPOS>BOND
   1    1    2 ar
   2    1   14 1
   3    1    6 ar
   4    2    3 ar
   5    2   26 1
   6    3    4 ar
   7    3   27 1
   8    4    5 ar
   9    4    7 1
  10    5    6 ar
  11    5   10 1
  12    6   28 1
  13    7    8 am
  14    7   13 1
  15    8    9 1
  16    8   12 2
  17    9   10 2
  18    9   15 1
  19   10   11 1
  20   11   29 1
  21   13   17 1
  22   13   30 1
  23   13   31 1
  24   15   16 2
  25   15   23 1
  26   17   18 1
  27   17   22 1
  28   17   32 1
  29   18   19 1
  30   18   33 1
  31   18   34 1
  32   19   20 1
  33   19   35 1
  34   19   36 1
  35   20   21 1
  36   20   37 1
  37   20   38 1
  38   21   22 1
  39   21   39 1
  40   21   40 1
  41   22   41 1
  42   22   42 1
  43   23   25 1
  44   24   25 1
  45   24   43 1
  46   24   44 1
  47   24   45 1
  48   25   46 1
  49   25   47 1

#	End of record

