#	Name: ASD01915856
#	Creating user name:	WinNT
#	Creation time:	15. 06. 2019 20:06

#	Modifying user name:	WinNT
#	Modification time:	15. 06. 2019 20:06

#	Program:	/corina/corina34_cracker 3.40 0067  02.08.2006

@<TRIPOS>MOLECULE
ASD01915856
  43   45    0    0    0
SMALL
NO_CHARGES


@<TRIPOS>ATOM
   1 C1            -0.4102     1.7400     0.1049 C.ar    
   2 C2            -0.5430     0.3898     0.3736 C.ar    
   3 N3             0.5002    -0.3403     0.7069 N.ar    
   4 C4             1.7181     0.1812     0.7998 C.ar    
   5 C5             1.9314     1.5321     0.5450 C.ar    
   6 C6             0.8477     2.3310     0.1896 C.ar    
   7 C7            -1.9022    -0.2549     0.2840 C.3     
   8 O8             1.0134     3.6534    -0.0675 O.3     
   9 C9             2.2650     4.1721     0.0388 C.ar    
  10 C10            3.1958     3.9765    -0.9711 C.ar    
  11 N11            4.4113     4.4774    -0.8720 N.ar    
  12 C12            4.7901     5.1781     0.1788 C.ar    
  13 C13            3.9186     5.4152     1.2256 C.ar    
  14 C14            2.6296     4.9119     1.1597 C.ar    
  15 C15            2.8597    -0.6835     1.1787 C.2     
  16 N16            2.6599    -1.9929     1.4272 N.am    
  17 O17            3.9764    -0.2121     1.2653 O.2     
  18 C18            3.7462    -2.8276     1.6802 C.ar    
  19 C19            3.5454    -4.1961     1.8205 C.ar    
  20 C20            4.6334    -5.0139     2.0711 C.ar    
  21 C21            5.8894    -4.4322     2.1732 C.ar    
  22 C22            6.0158    -3.0650     2.0229 C.ar    
  23 N23            4.9612    -2.3110     1.7795 N.ar    
  24 C24            7.3767    -2.4272     2.1331 C.3     
  25 C25            6.1921     5.7274     0.2398 C.3     
  26 H26           -1.2723     2.3287    -0.1719 H       
  27 H27            2.9224     1.9548     0.6217 H       
  28 H28           -2.0631    -0.6240    -0.7290 H       
  29 H29           -1.9570    -1.0864     0.9866 H       
  30 H30           -2.6695     0.4794     0.5293 H       
  31 H31            2.9220     3.4077    -1.8474 H       
  32 H32            4.2376     5.9897     2.0827 H       
  33 H33            1.9276     5.0820     1.9626 H       
  34 H34            1.7597    -2.3542     1.4300 H       
  35 H35            2.5537    -4.6153     1.7353 H       
  36 H36            4.5078    -6.0805     2.1851 H       
  37 H37            6.7590    -5.0422     2.3686 H       
  38 H38            7.8448    -2.3975     1.1492 H       
  39 H39            7.2723    -1.4122     2.5166 H       
  40 H40            7.9973    -3.0105     2.8132 H       
  41 H41            6.2123     6.7220    -0.2058 H       
  42 H42            6.5134     5.7885     1.2795 H       
  43 H43            6.8645     5.0691    -0.3102 H       
@<TRIPOS>BOND
   1    1    2 ar
   2    1    6 ar
   3    1   26 1
   4    2    3 ar
   5    2    7 1
   6    3    4 ar
   7    4    5 ar
   8    4   15 1
   9    5    6 ar
  10    5   27 1
  11    6    8 1
  12    7   28 1
  13    7   29 1
  14    7   30 1
  15    8    9 1
  16    9   10 ar
  17    9   14 ar
  18   10   11 ar
  19   10   31 1
  20   11   12 ar
  21   12   13 ar
  22   12   25 1
  23   13   14 ar
  24   13   32 1
  25   14   33 1
  26   15   16 am
  27   15   17 2
  28   16   18 1
  29   16   34 1
  30   18   19 ar
  31   18   23 ar
  32   19   20 ar
  33   19   35 1
  34   20   21 ar
  35   20   36 1
  36   21   22 ar
  37   21   37 1
  38   22   23 ar
  39   22   24 1
  40   24   38 1
  41   24   39 1
  42   24   40 1
  43   25   41 1
  44   25   42 1
  45   25   43 1

#	End of record

