#	Name: ASD01148833
#	Creating user name:	WinNT
#	Creation time:	15. 06. 2019 19:03

#	Modifying user name:	WinNT
#	Modification time:	15. 06. 2019 19:03

#	Program:	/corina/corina34_cracker 3.40 0067  02.08.2006

@<TRIPOS>MOLECULE
ASD01148833
  44   46    0    0    0
SMALL
NO_CHARGES


@<TRIPOS>ATOM
   1 N1            -0.0156     1.3406     0.0824 N.pl3   
   2 C2             0.0021     0.0054    -0.1105 C.2     
   3 C3             1.3180    -0.4069    -0.1561 C.2     
   4 C4             2.1210     0.7505     0.0198 C.2     
   5 C5             1.2766     1.8039     0.1631 C.2     
   6 C6             1.7979    -1.7842    -0.3502 C.2     
   7 O7             1.0010    -2.6913    -0.4899 O.2     
   8 O8             3.1210    -2.0399    -0.3731 O.3     
   9 C9            -1.2071    -0.8828    -0.2514 C.3     
  10 C10            1.6786     3.2119     0.3706 C.ar    
  11 C11            0.7808     4.1213     0.9313 C.ar    
  12 C12            1.1614     5.4334     1.1224 C.ar    
  13 C13            2.4313     5.8487     0.7590 C.ar    
  14 C14            3.3263     4.9510     0.2018 C.ar    
  15 C15            2.9591     3.6349     0.0117 C.ar    
  16 Cl16           2.9032     7.5015     1.0025 Cl      
  17 C17           -1.1695     2.1320     0.1792 C.ar    
  18 C18           -2.0100     2.0022     1.2768 C.ar    
  19 C19           -3.1456     2.7812     1.3726 C.ar    
  20 C20           -3.4474     3.6950     0.3708 C.ar    
  21 C21           -2.6063     3.8245    -0.7271 C.ar    
  22 C22           -1.4681     3.0490    -0.8197 C.ar    
  23 N23           -4.5976     4.4838     0.4673 N.pl3   
  24 C24            3.5221    -3.4217    -0.5686 C.3     
  25 C25            5.0492    -3.5148    -0.5658 C.3     
  26 H26            3.2003     0.7864     0.0365 H       
  27 H27           -1.4882    -0.9499    -1.3024 H       
  28 H28           -0.9729    -1.8781     0.1263 H       
  29 H29           -2.0349    -0.4629     0.3200 H       
  30 H30           -0.2101     3.7986     1.2148 H       
  31 H31            0.4673     6.1382     1.5559 H       
  32 H32            4.3154     5.2806    -0.0800 H       
  33 H33            3.6595     2.9345    -0.4186 H       
  34 H34           -1.7755     1.2915     2.0554 H       
  35 H35           -3.7995     2.6800     2.2262 H       
  36 H36           -2.8407     4.5348    -1.5062 H       
  37 H37           -0.8118     3.1528    -1.6711 H       
  38 H38           -5.1851     4.3930     1.2339 H       
  39 H39           -4.8083     5.1218    -0.2323 H       
  40 H40            3.1192    -4.0345     0.2378 H       
  41 H41            3.1380    -3.7798    -1.5238 H       
  42 H42            5.3503    -4.5520    -0.7126 H       
  43 H43            5.4521    -2.9019    -1.3722 H       
  44 H44            5.4333    -3.1567     0.3894 H       
@<TRIPOS>BOND
   1    1    2 1
   2    1    5 1
   3    1   17 1
   4    2    3 2
   5    2    9 1
   6    3    4 1
   7    3    6 1
   8    4    5 2
   9    4   26 1
  10    5   10 1
  11    6    7 2
  12    6    8 1
  13    8   24 1
  14    9   27 1
  15    9   28 1
  16    9   29 1
  17   10   11 ar
  18   10   15 ar
  19   11   12 ar
  20   11   30 1
  21   12   13 ar
  22   12   31 1
  23   13   14 ar
  24   13   16 1
  25   14   15 ar
  26   14   32 1
  27   15   33 1
  28   17   18 ar
  29   17   22 ar
  30   18   19 ar
  31   18   34 1
  32   19   20 ar
  33   19   35 1
  34   20   21 ar
  35   20   23 1
  36   21   22 ar
  37   21   36 1
  38   22   37 1
  39   23   38 1
  40   23   39 1
  41   24   25 1
  42   24   40 1
  43   24   41 1
  44   25   42 1
  45   25   43 1
  46   25   44 1

#	End of record

