#	Name: ASD03081360
#	Creating user name:	WinNT
#	Creation time:	15. 06. 2019 20:27

#	Modifying user name:	WinNT
#	Modification time:	15. 06. 2019 20:27

#	Program:	/corina/corina34_cracker 3.40 0067  02.08.2006

@<TRIPOS>MOLECULE
ASD03081360
  33   35    0    0    0
SMALL
NO_CHARGES


@<TRIPOS>ATOM
   1 O1            -0.0162     1.3445     0.0094 O.3     
   2 C2             0.0021    -0.0041     0.0020 C.2     
   3 N3             1.2619    -0.3802    -0.0120 N.2     
   4 N4             2.0183     0.6605    -0.0137 N.2     
   5 C5             1.2734     1.7417    -0.0007 C.2     
   6 C6             0.8557     4.2024     0.0145 C.ar    
   7 C7             1.7583     3.1372     0.0012 C.ar    
   8 C8             3.1307     3.4142    -0.0099 C.ar    
   9 C9             3.5325     4.7384    -0.0071 C.ar    
  10 C10            2.5752     5.7365     0.0064 C.ar    
  11 N11            1.2881     5.4461     0.0162 N.ar    
  12 C12           -1.0151    -2.2866    -0.0005 C.ar    
  13 C13           -1.1749    -0.8935     0.0085 C.ar    
  14 C14           -2.4695    -0.3601     0.0242 C.ar    
  15 C15           -3.5404    -1.2334     0.0301 C.ar    
  16 C16           -3.3040    -2.6028     0.0205 C.ar    
  17 N17           -2.0701    -3.0825     0.0057 N.ar    
  18 O18           -4.3537    -3.4613     0.0268 O.3     
  19 C19           -4.0499    -4.8576     0.0163 C.3     
  20 O20            0.2305    -2.8208    -0.0214 O.3     
  21 C21            0.3248    -4.2467    -0.0296 C.3     
  22 H22           -0.2060     4.0046     0.0186 H       
  23 H23            3.8570     2.6149    -0.0200 H       
  24 H24            4.5828     4.9898    -0.0150 H       
  25 H25            2.8862     6.7707     0.0086 H       
  26 H26           -2.6273     0.7083     0.0318 H       
  27 H27           -4.5519    -0.8551     0.0426 H       
  28 H28           -3.4797    -5.0987    -0.8809 H       
  29 H29           -3.4614    -5.1081     0.8990 H       
  30 H30           -4.9768    -5.4312     0.0229 H       
  31 H31           -0.1508    -4.6474     0.8656 H       
  32 H32           -0.1770    -4.6389    -0.9142 H       
  33 H33            1.3741    -4.5413    -0.0465 H       
@<TRIPOS>BOND
   1    1    2 1
   2    1    5 1
   3    2    3 2
   4    2   13 1
   5    3    4 1
   6    4    5 2
   7    5    7 1
   8    6    7 ar
   9    6   11 ar
  10    6   22 1
  11    7    8 ar
  12    8    9 ar
  13    8   23 1
  14    9   10 ar
  15    9   24 1
  16   10   11 ar
  17   10   25 1
  18   12   13 ar
  19   12   17 ar
  20   12   20 1
  21   13   14 ar
  22   14   15 ar
  23   14   26 1
  24   15   16 ar
  25   15   27 1
  26   16   17 ar
  27   16   18 1
  28   18   19 1
  29   19   28 1
  30   19   29 1
  31   19   30 1
  32   20   21 1
  33   21   31 1
  34   21   32 1
  35   21   33 1

#	End of record

