#	Name: ASD03090004
#	Creating user name:	WinNT
#	Creation time:	15. 06. 2019 20:28

#	Modifying user name:	WinNT
#	Modification time:	15. 06. 2019 20:28

#	Program:	/corina/corina34_cracker 3.40 0067  02.08.2006

@<TRIPOS>MOLECULE
ASD03090004
  42   45    0    0    0
SMALL
NO_CHARGES


@<TRIPOS>ATOM
   1 C1            -0.0164     1.3571     0.0095 C.ar    
   2 C2             0.0021    -0.0041     0.0020 C.ar    
   3 C3            -1.1132    -1.0247     0.1252 C.3     
   4 C4            -2.2385    -0.7290    -0.8458 C.3     
   5 C5            -2.9292     0.5702    -0.5480 C.3     
   6 N6            -2.2225     1.7385    -0.9956 N.3     
   7 C7            -1.2139     2.2562    -0.0924 C.3     
   8 C8             1.2292     2.0026     0.0011 C.ar    
   9 C9             2.4093     1.3018    -0.0798 C.ar    
  10 C10            2.4298    -0.0866    -0.1353 C.ar    
  11 C11            1.1931    -0.7401    -0.0715 C.ar    
  12 O12            0.9741    -2.0725    -0.0127 O.3     
  13 C13           -0.4118    -2.3254    -0.2739 C.3     
  14 C14           -0.9154    -3.5504     0.4374 C.3     
  15 C15           -1.0074    -3.3925     1.9413 C.3     
  16 C16           -1.5664    -2.0605     2.3271 C.2     
  17 C17           -1.6034    -1.0419     1.5358 C.2     
  18 O18            0.2987    -3.5301     2.5045 O.3     
  19 H19           -0.5410    -2.4755    -1.3457 H       
  20 O20            3.5957    -0.7779    -0.2458 O.3     
  21 C21            4.8010    -0.0123    -0.3025 C.3     
  22 C22           -3.1576     2.7959    -1.4023 C.3     
  23 H23           -1.8309    -0.6881    -1.8559 H       
  24 H24           -2.9691    -1.5363    -0.7951 H       
  25 H25           -3.9100     0.5567    -1.0234 H       
  26 H26           -3.0732     0.6456     0.5298 H       
  27 H27           -1.6537     2.3712     0.8983 H       
  28 H28           -0.8909     3.2345    -0.4483 H       
  29 H29            1.2620     3.0806     0.0594 H       
  30 H30            3.3434     1.8436    -0.1011 H       
  31 H31           -1.9056    -3.7935     0.0522 H       
  32 H32           -0.2458    -4.3812     0.2154 H       
  33 H33           -1.6497    -4.1767     2.3420 H       
  34 H34           -1.9618    -1.9442     3.3254 H       
  35 H35           -2.0231    -0.1264     1.9258 H       
  36 H36            0.3233    -3.4413     3.4671 H       
  37 H37            4.7702     0.6503    -1.1675 H       
  38 H38            4.8975     0.5813     0.6066 H       
  39 H39            5.6546    -0.6844    -0.3899 H       
  40 H40           -3.7860     3.0707    -0.5551 H       
  41 H41           -2.5964     3.6684    -1.7366 H       
  42 H42           -3.7844     2.4330    -2.2170 H       
@<TRIPOS>BOND
   1    1    2 ar
   2    1    8 ar
   3    1    7 1
   4    2    3 1
   5    2   11 ar
   6    3    4 1
   7    3   13 1
   8    3   17 1
   9    4    5 1
  10    4   23 1
  11    4   24 1
  12    5    6 1
  13    5   25 1
  14    5   26 1
  15    6    7 1
  16    6   22 1
  17    7   27 1
  18    7   28 1
  19    8    9 ar
  20    8   29 1
  21    9   10 ar
  22    9   30 1
  23   10   11 ar
  24   10   20 1
  25   11   12 1
  26   12   13 1
  27   13   14 1
  28   13   19 1
  29   14   15 1
  30   14   31 1
  31   14   32 1
  32   15   16 1
  33   15   18 1
  34   15   33 1
  35   16   17 2
  36   16   34 1
  37   17   35 1
  38   18   36 1
  39   20   21 1
  40   21   37 1
  41   21   38 1
  42   21   39 1
  43   22   40 1
  44   22   41 1
  45   22   42 1

#	End of record

