#	Name: ASD07930936
#	Creating user name:	WinNT
#	Creation time:	15. 06. 2019 21:13

#	Modifying user name:	WinNT
#	Modification time:	15. 06. 2019 21:13

#	Program:	/corina/corina34_cracker 3.40 0067  02.08.2006

@<TRIPOS>MOLECULE
ASD07930936
  38   40    0    0    0
SMALL
NO_CHARGES


@<TRIPOS>ATOM
   1 N1            -0.0133     1.3898    -0.0869 N.2     
   2 N2             0.0044    -0.0043    -0.0646 N.am    
   3 C3             1.2697    -0.4554     0.0453 C.2     
   4 C4             2.1276     0.7372     0.0973 C.2     
   5 C5             1.1939     1.8804     0.0042 C.2     
   6 O6             1.6304    -1.6190     0.0927 O.2     
   7 C7             1.5598     3.3156     0.0125 C.ar    
   8 C8             2.3034     3.8561    -1.0394 C.ar    
   9 C9             2.6411     5.1963    -1.0245 C.ar    
  10 C10            2.2440     6.0002     0.0287 C.ar    
  11 C11            1.5075     5.4695     1.0726 C.ar    
  12 C12            1.1587     4.1343     1.0674 C.ar    
  13 F13            2.6918     3.0711    -2.0680 F       
  14 C14           -1.1315    -0.8200    -0.1449 C.ar    
  15 C15           -2.1774    -0.6498     0.7565 C.ar    
  16 C16           -3.2967    -1.4573     0.6735 C.ar    
  17 C17           -3.3762    -2.4325    -0.3041 C.ar    
  18 C18           -2.3380    -2.6033    -1.2009 C.ar    
  19 C19           -1.2188    -1.7963    -1.1276 C.ar    
  20 F20           -2.0993     0.3025     1.7115 F       
  21 C21            3.4982     0.7805     0.2091 C.2     
  22 O22            4.1933    -0.3542     0.3880 O.3     
  23 C23            5.6361    -0.2331     0.4976 C.3     
  24 C24            6.2507    -1.6200     0.6964 C.3     
  25 H25            3.2162     5.6164    -1.8364 H       
  26 H26            2.5104     7.0468     0.0363 H       
  27 H27            1.2007     6.1030     1.8918 H       
  28 H28            0.5795     3.7233     1.8811 H       
  29 H29           -4.1093    -1.3267     1.3728 H       
  30 H30           -4.2513    -3.0623    -0.3668 H       
  31 H31           -2.4038    -3.3659    -1.9628 H       
  32 H32           -0.4107    -1.9279    -1.8319 H       
  33 H33            4.0150     1.7272     0.1528 H       
  34 H34            6.0336     0.2132    -0.4140 H       
  35 H35            5.8839     0.3997     1.3498 H       
  36 H36            7.3338    -1.5291     0.7787 H       
  37 H37            5.8533    -2.0663     1.6080 H       
  38 H38            6.0029    -2.2528    -0.1558 H       
@<TRIPOS>BOND
   1    1    2 1
   2    1    5 2
   3    2    3 am
   4    2   14 1
   5    3    4 1
   6    3    6 2
   7    4    5 1
   8    4   21 2
   9    5    7 1
  10    7    8 ar
  11    7   12 ar
  12    8    9 ar
  13    8   13 1
  14    9   10 ar
  15    9   25 1
  16   10   11 ar
  17   10   26 1
  18   11   12 ar
  19   11   27 1
  20   12   28 1
  21   14   15 ar
  22   14   19 ar
  23   15   16 ar
  24   15   20 1
  25   16   17 ar
  26   16   29 1
  27   17   18 ar
  28   17   30 1
  29   18   19 ar
  30   18   31 1
  31   19   32 1
  32   21   22 1
  33   21   33 1
  34   22   23 1
  35   23   24 1
  36   23   34 1
  37   23   35 1
  38   24   36 1
  39   24   37 1
  40   24   38 1

#	End of record

