#	Name: ASD03240190
#	Creating user name:	WinNT
#	Creation time:	15. 06. 2019 20:34

#	Modifying user name:	WinNT
#	Modification time:	15. 06. 2019 20:34

#	Program:	/corina/corina34_cracker 3.40 0067  02.08.2006

@<TRIPOS>MOLECULE
ASD03240190
  48   52    0    0    0
SMALL
NO_CHARGES


@<TRIPOS>ATOM
   1 C1            -0.0167     1.3806     0.0096 C.ar    
   2 C2             0.0021    -0.0041     0.0020 C.ar    
   3 C3            -1.1839    -0.7117     0.0095 C.ar    
   4 C4            -2.3956    -0.0339     0.0247 C.ar    
   5 C5            -2.4123     1.3543     0.0324 C.ar    
   6 C6            -1.2241     2.0584     0.0306 C.ar    
   7 N7            -3.6004    -0.7503     0.0319 N.pl3   
   8 C8            -3.9124    -1.7667    -0.8312 C.2     
   9 C9            -5.1516    -2.2396    -0.5491 C.2     
  10 C10           -5.6522    -1.4514     0.5846 C.ar    
  11 C11           -4.6335    -0.5382     0.9079 C.ar    
  12 C12           -6.8336    -1.4374     1.3377 C.ar    
  13 N13           -6.9422    -0.5534     2.3260 N.ar    
  14 C14           -5.9629     0.2913     2.5933 C.ar    
  15 N15           -4.8346     0.3081     1.9168 N.ar    
  16 N16           -7.8618    -2.3205     1.0602 N.pl3   
  17 C17           -9.0892    -2.2900     1.8593 C.3     
  18 C18          -10.0421    -3.3438     1.3568 C.ar    
  19 C19          -10.0682    -4.5856     1.9624 C.ar    
  20 C20           -5.8619    -3.3368    -1.2482 C.ar    
  21 C21           -5.9572    -3.3342    -2.6392 C.ar    
  22 C22           -6.4323    -4.3784    -0.5177 C.ar    
  23 C23           -7.0924    -5.3971    -1.1740 C.ar    
  24 C24           -7.1887    -5.3862    -2.5540 C.ar    
  25 C25           -6.6198    -4.3584    -3.2845 C.ar    
  26 C26          -10.9487    -5.5483     1.4924 C.ar    
  27 C27          -11.7732    -5.2240     0.4263 C.ar    
  28 C28          -11.6910    -3.9608    -0.1289 C.ar    
  29 N29          -10.8452    -3.0685     0.3476 N.ar    
  30 F30            1.1445     2.0710     0.0023 F       
  31 H31            0.9448    -0.5309    -0.0102 H       
  32 H32           -1.1689    -1.7916     0.0032 H       
  33 H33           -3.3538     1.8833     0.0442 H       
  34 H34           -1.2367     3.1383     0.0368 H       
  35 H35           -3.2697    -2.1349    -1.6172 H       
  36 H36           -6.0912     0.9933     3.4039 H       
  37 H37           -7.7699    -2.9598     0.3365 H       
  38 H38           -8.8478    -2.4868     2.9038 H       
  39 H39           -9.5548    -1.3082     1.7728 H       
  40 H40           -9.4109    -4.8037     2.7912 H       
  41 H41           -5.5138    -2.5321    -3.2104 H       
  42 H42           -6.3574    -4.3881     0.5597 H       
  43 H43           -7.5343    -6.2047    -0.6092 H       
  44 H44           -7.7060    -6.1858    -3.0634 H       
  45 H45           -6.6985    -4.3549    -4.3616 H       
  46 H46          -10.9907    -6.5275     1.9460 H       
  47 H47          -12.4708    -5.9493     0.0342 H       
  48 H48          -12.3296    -3.7005    -0.9600 H       
@<TRIPOS>BOND
   1    1    2 ar
   2    1   30 1
   3    1    6 ar
   4    2    3 ar
   5    2   31 1
   6    3    4 ar
   7    3   32 1
   8    4    5 ar
   9    4    7 1
  10    5    6 ar
  11    5   33 1
  12    6   34 1
  13    7    8 1
  14    7   11 1
  15    8    9 2
  16    8   35 1
  17    9   10 1
  18    9   20 1
  19   10   11 ar
  20   10   12 ar
  21   11   15 ar
  22   12   13 ar
  23   12   16 1
  24   13   14 ar
  25   14   15 ar
  26   14   36 1
  27   16   17 1
  28   16   37 1
  29   17   18 1
  30   17   38 1
  31   17   39 1
  32   18   19 ar
  33   18   29 ar
  34   19   26 ar
  35   19   40 1
  36   20   21 ar
  37   20   22 ar
  38   21   25 ar
  39   21   41 1
  40   22   23 ar
  41   22   42 1
  42   23   24 ar
  43   23   43 1
  44   24   25 ar
  45   24   44 1
  46   25   45 1
  47   26   27 ar
  48   26   46 1
  49   27   28 ar
  50   27   47 1
  51   28   29 ar
  52   28   48 1

#	End of record

