#	Name: ASD00842769
#	Creating user name:	WinNT
#	Creation time:	15. 06. 2019 18:45

#	Modifying user name:	WinNT
#	Modification time:	15. 06. 2019 18:45

#	Program:	/corina/corina34_cracker 3.40 0067  02.08.2006

@<TRIPOS>MOLECULE
ASD00842769
  84   89    0    0    0
SMALL
NO_CHARGES


@<TRIPOS>ATOM
   1 F1            -0.0915    -3.1263     4.7193 F       
   2 C2            -0.0167     1.3829     0.0096 C.ar    
   3 C3             0.0021    -0.0041     0.0020 C.ar    
   4 C4             1.2143    -0.6791    -0.0132 C.ar    
   5 C5             2.3989     0.0312    -0.0207 C.ar    
   6 C6             2.3774     1.4139    -0.0126 C.ar    
   7 C7             1.1710     2.0888     0.0021 C.ar    
   8 C8             1.2384    -2.1858    -0.0210 C.3     
   9 C9             0.4953    -2.7219    -1.2261 C.2     
  10 O10            2.6067    -2.6715    -0.0097 O.3     
  11 C11            3.3980    -2.2932    -1.0313 C.2     
  12 N12            4.6790    -2.7090    -1.0812 N.am    
  13 O13            2.9572    -1.5768    -1.9082 O.2     
  14 C14            5.5547    -2.3046    -2.1894 C.3     
  15 C15            6.1662    -3.5606    -2.8182 C.3     
  16 C16            6.8654    -4.3813    -1.7320 C.3     
  17 C17            5.8417    -4.8168    -0.6810 C.3     
  18 C18            5.2281    -3.5704    -0.0251 C.3     
  19 C19            7.5070    -5.6191    -2.3621 C.3     
  20 C20            8.5328    -5.1851    -3.4128 C.3     
  21 C21            9.2145    -6.4250    -3.9958 C.3     
  22 N22            9.8763    -7.1730    -2.9194 N.3     
  23 C23            8.9046    -7.6409    -1.9227 C.3     
  24 C24            8.2137    -6.4373    -1.2778 C.3     
  25 H25           10.4126    -7.9428    -3.2907 H       
  26 O26            0.7741    -2.5257    -2.3901 O.2     
  27 N27           -0.5308    -3.4561    -0.7641 N.am    
  28 C28            0.4693    -2.7338     1.1591 C.ar    
  29 C29           -0.5745    -3.4835     0.6314 C.ar    
  30 C30            0.6336    -2.6122     2.5207 C.ar    
  31 C31           -0.2493    -3.2426     3.3826 C.ar    
  32 C32           -1.2952    -3.9938     2.8681 C.ar    
  33 C33           -1.4597    -4.1156     1.5017 C.ar    
  34 F34           -2.1572    -4.6094     3.7067 F       
  35 C35           -0.9812    -5.8525    -2.0402 C.ar    
  36 C36           -1.3054    -6.8932    -1.1895 C.ar    
  37 C37           -0.1624    -6.0778    -3.1313 C.ar    
  38 C38            0.3340    -7.3440    -3.3740 C.ar    
  39 C39            0.0103    -8.3898    -2.5220 C.ar    
  40 C40           -0.8112    -8.1610    -1.4277 C.ar    
  41 O41            0.4970    -9.6364    -2.7589 O.3     
  42 H42           -1.9452    -6.7146    -0.3380 H       
  43 C43            0.1222   -10.6646    -1.8401 C.3     
  44 S44           -1.6186    -4.2380    -1.7375 S.o2    
  45 O45           -2.7978    -4.4107    -0.9636 O.2     
  46 O46           -1.6007    -3.5589    -2.9856 O.2     
  47 O47           -1.1648    -0.7006     0.0099 O.3     
  48 C48           -3.5740    -0.8895     0.0328 C.3     
  49 C49           -2.3744     0.0601     0.0260 C.3     
  50 H50           -0.9590     1.9106     0.0170 H       
  51 H51            3.3426    -0.4937    -0.0325 H       
  52 H52            3.3047     1.9675    -0.0178 H       
  53 H53            1.1569     3.1687     0.0084 H       
  54 H54            4.9723    -1.7677    -2.9382 H       
  55 H55            6.3493    -1.6614    -1.8113 H       
  56 H56            5.3783    -4.1589    -3.2757 H       
  57 H57            6.8915    -3.2706    -3.5785 H       
  58 H58            7.6366    -3.7742    -1.2581 H       
  59 H59            5.0568    -5.4032    -1.1587 H       
  60 H60            6.3359    -5.4208     0.0799 H       
  61 H61            5.9975    -3.0329     0.5291 H       
  62 H62            4.4288    -3.8702     0.6526 H       
  63 H63            6.7365    -6.2280    -2.8351 H       
  64 H64            8.0285    -4.6384    -4.2097 H       
  65 H65            9.2810    -4.5433    -2.9475 H       
  66 H66            8.4676    -7.0595    -4.4730 H       
  67 H67            9.9556    -6.1186    -4.7340 H       
  68 H68            8.1592    -8.2697    -2.4096 H       
  69 H69            9.4207    -8.2176    -1.1552 H       
  70 H70            8.9569    -5.8152    -0.7789 H       
  71 H71            7.4814    -6.7853    -0.5493 H       
  72 H72            1.4500    -2.0263     2.9165 H       
  73 H73           -2.2766    -4.7018     1.1074 H       
  74 H74            0.0891    -5.2634    -3.7945 H       
  75 H75            0.9733    -7.5195    -4.2266 H       
  76 H76           -1.0650    -8.9737    -0.7631 H       
  77 H77            0.4660   -10.4012    -0.8399 H       
  78 H78           -0.9627   -10.7698    -1.8353 H       
  79 H79            0.5773   -11.6072    -2.1442 H       
  80 H80           -3.5489    -1.5131    -0.8609 H       
  81 H81           -3.5312    -1.5227     0.9190 H       
  82 H82           -4.4966    -0.3093     0.0451 H       
  83 H83           -2.3995     0.6837     0.9196 H       
  84 H84           -2.4172     0.6932    -0.8603 H       
@<TRIPOS>BOND
   1    1   31 1
   2    2    3 ar
   3    2    7 ar
   4    2   50 1
   5    3    4 ar
   6    3   47 1
   7    4    5 ar
   8    4    8 1
   9    5    6 ar
  10    5   51 1
  11    6    7 ar
  12    6   52 1
  13    7   53 1
  14    8    9 1
  15    8   10 1
  16    8   28 1
  17    9   26 2
  18    9   27 am
  19   10   11 1
  20   11   12 am
  21   11   13 2
  22   12   14 1
  23   12   18 1
  24   14   15 1
  25   14   54 1
  26   14   55 1
  27   15   16 1
  28   15   56 1
  29   15   57 1
  30   16   17 1
  31   16   19 1
  32   16   58 1
  33   17   18 1
  34   17   59 1
  35   17   60 1
  36   18   61 1
  37   18   62 1
  38   19   20 1
  39   19   24 1
  40   19   63 1
  41   20   21 1
  42   20   64 1
  43   20   65 1
  44   21   22 1
  45   21   66 1
  46   21   67 1
  47   22   23 1
  48   22   25 1
  49   23   24 1
  50   23   68 1
  51   23   69 1
  52   24   70 1
  53   24   71 1
  54   27   44 am
  55   27   29 1
  56   28   29 ar
  57   28   30 ar
  58   29   33 ar
  59   30   31 ar
  60   30   72 1
  61   31   32 ar
  62   32   33 ar
  63   32   34 1
  64   33   73 1
  65   35   36 ar
  66   35   37 ar
  67   35   44 1
  68   36   42 1
  69   36   40 ar
  70   37   38 ar
  71   37   74 1
  72   38   39 ar
  73   38   75 1
  74   39   40 ar
  75   39   41 1
  76   40   76 1
  77   41   43 1
  78   43   77 1
  79   43   78 1
  80   43   79 1
  81   44   45 2
  82   44   46 2
  83   47   49 1
  84   48   49 1
  85   48   80 1
  86   48   81 1
  87   48   82 1
  88   49   83 1
  89   49   84 1

#	End of record

