#	Name: ASD04370042
#	Creating user name:	WinNT
#	Creation time:	15. 06. 2019 20:49

#	Modifying user name:	WinNT
#	Modification time:	15. 06. 2019 20:49

#	Program:	/corina/corina34_cracker 3.40 0067  02.08.2006

@<TRIPOS>MOLECULE
ASD04370042
  64   64    0    0    0
SMALL
NO_CHARGES


@<TRIPOS>ATOM
   1 C1            -0.6309     1.0722     0.4056 C.2     
   2 C2            -0.4028    -0.4162     0.3442 C.3     
   3 C3             1.0876    -0.6958     0.1405 C.3     
   4 C4             1.3036    -2.1988    -0.0465 C.3     
   5 O5             0.3027     1.8314     0.2975 O.2     
   6 O6            -1.8721     1.5545     0.5748 O.3     
   7 N7             1.8353    -0.2372     1.3139 N.am    
   8 C8             3.1538     0.0231     1.2133 C.2     
   9 C9             3.9454     0.3894     2.4423 C.3     
  10 C10            5.4054     0.6326     2.0547 C.3     
  11 C11            6.2091     1.0045     3.3024 C.3     
  12 C12            7.6691     1.2477     2.9149 C.3     
  13 C13            8.4728     1.6195     4.1625 C.3     
  14 C14            9.9328     1.8627     3.7750 C.3     
  15 C15           10.7365     2.2346     5.0227 C.3     
  16 O16            3.7033    -0.0375     0.1338 O.2     
  17 O17           12.1001     2.4618     4.6607 O.3     
  18 C18           12.9416     2.8173     5.7596 C.3     
  19 C19           14.3490     3.0321     5.2655 C.ar    
  20 C20           14.7514     4.2877     4.8505 C.ar    
  21 C21           16.0445     4.4848     4.3971 C.ar    
  22 C22           16.9334     3.4236     4.3599 C.ar    
  23 C23           16.5288     2.1693     4.7752 C.ar    
  24 C24           15.2387     1.9748     5.2328 C.ar    
  25 C25           18.3412     3.6364     3.8661 C.3     
  26 F26           19.0428     2.4273     3.9220 F       
  27 F27           18.3076     4.0954     2.5449 F       
  28 F28           18.9801     4.5841     4.6729 F       
  29 F29           16.4388     5.7114     3.9908 F       
  30 N30            0.6331    -2.6406    -1.2766 N.3     
  31 C31            1.3969    -2.2397    -2.4656 C.3     
  32 C32            0.4071    -4.0921    -1.2608 C.3     
  33 H33           -0.7341    -0.8733     1.2766 H       
  34 H34           -0.9683    -0.8364    -0.4875 H       
  35 H35            1.4391    -0.1653    -0.7444 H       
  36 H36            2.3712    -2.4061    -0.1201 H       
  37 H37            0.8875    -2.7346     0.8067 H       
  38 H38           -1.9687     2.5161     0.6080 H       
  39 H39            1.3813    -0.1209     2.1632 H       
  40 H40            3.5312     1.2954     2.8846 H       
  41 H41            3.8921    -0.4249     3.1649 H       
  42 H42            5.8197    -0.2734     1.6124 H       
  43 H43            5.4587     1.4469     1.3321 H       
  44 H44            5.7949     1.9105     3.7448 H       
  45 H45            6.1558     0.1902     4.0250 H       
  46 H46            8.0834     0.3417     2.4725 H       
  47 H47            7.7224     2.0620     2.1923 H       
  48 H48            8.0585     2.5255     4.6049 H       
  49 H49            8.4195     0.8052     4.8851 H       
  50 H50           10.3470     0.9568     3.3327 H       
  51 H51            9.9861     2.6771     3.0524 H       
  52 H52           10.3222     3.1406     5.4650 H       
  53 H53           10.6832     1.4203     5.7453 H       
  54 H54           12.5731     3.7354     6.2172 H       
  55 H55           12.9341     2.0151     6.4974 H       
  56 H56           14.0572     5.1145     4.8796 H       
  57 H57           17.2219     1.3415     4.7463 H       
  58 H58           14.9247     0.9951     5.5615 H       
  59 H59            2.3617    -2.7469    -2.4658 H       
  60 H60            0.8423    -2.5135    -3.3631 H       
  61 H61            1.5535    -1.1611    -2.4502 H       
  62 H62           -0.2197    -4.3530    -0.4081 H       
  63 H63           -0.0905    -4.3924    -2.1829 H       
  64 H64            1.3639    -4.6079    -1.1797 H       
@<TRIPOS>BOND
   1    1    2 1
   2    1    5 2
   3    1    6 1
   4    2    3 1
   5    2   33 1
   6    2   34 1
   7    3    4 1
   8    3    7 1
   9    3   35 1
  10    4   30 1
  11    4   36 1
  12    4   37 1
  13    6   38 1
  14    7    8 am
  15    7   39 1
  16    8    9 1
  17    8   16 2
  18    9   10 1
  19    9   40 1
  20    9   41 1
  21   10   11 1
  22   10   42 1
  23   10   43 1
  24   11   12 1
  25   11   44 1
  26   11   45 1
  27   12   13 1
  28   12   46 1
  29   12   47 1
  30   13   14 1
  31   13   48 1
  32   13   49 1
  33   14   15 1
  34   14   50 1
  35   14   51 1
  36   15   17 1
  37   15   52 1
  38   15   53 1
  39   17   18 1
  40   18   19 1
  41   18   54 1
  42   18   55 1
  43   19   20 ar
  44   19   24 ar
  45   20   21 ar
  46   20   56 1
  47   21   22 ar
  48   21   29 1
  49   22   23 ar
  50   22   25 1
  51   23   24 ar
  52   23   57 1
  53   24   58 1
  54   25   26 1
  55   25   27 1
  56   25   28 1
  57   30   31 1
  58   30   32 1
  59   31   59 1
  60   31   60 1
  61   31   61 1
  62   32   62 1
  63   32   63 1
  64   32   64 1

#	End of record

