#	Name: ASD08170562
#	Creating user name:	WinNT
#	Creation time:	15. 06. 2019 21:17

#	Modifying user name:	WinNT
#	Modification time:	15. 06. 2019 21:17

#	Program:	/corina/corina34_cracker 3.40 0067  02.08.2006

@<TRIPOS>MOLECULE
ASD08170562
  62   67    0    0    0
SMALL
NO_CHARGES


@<TRIPOS>ATOM
   1 C1            -0.0184     1.5028     0.0103 C.3     
   2 C2             0.0021    -0.0041     0.0020 C.2     
   3 N3             0.4943    -0.6655    -1.0641 N.am    
   4 C4             0.5132    -2.0561    -1.0718 C.2     
   5 S5             1.1029    -3.0397    -2.3444 S.3     
   6 C6             0.6910    -4.4723    -1.4012 C.2     
   7 C7             0.8995    -5.9041    -1.8224 C.3     
   8 C8            -0.3429    -6.4042    -2.5621 C.3     
   9 C9            -1.3736    -8.3580    -3.7295 C.3     
  10 C10           -1.1650    -9.7898    -4.1508 C.2     
  11 S11           -0.4651   -10.3343    -5.6757 S.3     
  12 C12           -0.6756   -11.9576    -5.1704 C.2     
  13 N13           -0.3277   -13.0866    -5.9042 N.am    
  14 C14           -0.5451   -14.3151    -5.3943 C.2     
  15 C15           -0.1682   -15.5385    -6.1895 C.3     
  16 N16            0.0918    -2.8242    -0.1129 N.2     
  17 N17            0.1774    -4.0725    -0.2813 N.2     
  18 N18           -1.4623   -10.8417    -3.4559 N.2     
  19 N19           -1.2133   -11.9591    -3.9880 N.2     
  20 O20           -1.0441   -14.4360    -4.2955 O.2     
  21 O21           -0.4244    -0.6216     0.9548 O.2     
  22 O22           -0.5467     1.9981     1.2522 O.3     
  23 C23            1.4208     2.0705    -0.0004 C.3     
  24 C24            1.6978     2.2487     1.4799 C.ar    
  25 C25            0.4743     2.1822     2.1336 C.ar    
  26 C26            2.8644     2.4448     2.1854 C.ar    
  27 C27            2.8264     2.5719     3.5626 C.ar    
  28 C28            1.6147     2.5014     4.2253 C.ar    
  29 C29            0.4450     2.3081     3.5205 C.ar    
  30 O30           -0.4088   -16.7344    -5.4288 O.3     
  31 C31           -0.8012   -17.7306    -6.2695 C.ar    
  32 C32           -1.2471   -17.2200    -7.4816 C.ar    
  33 C33           -1.1073   -15.7118    -7.4066 C.3     
  34 C34           -0.8105   -19.1101    -6.0767 C.ar    
  35 C35           -1.2621   -19.9480    -7.0748 C.ar    
  36 C36           -1.7096   -19.4272    -8.2752 C.ar    
  37 C37           -1.7011   -18.0584    -8.4757 C.ar    
  38 C38           -0.1311    -7.8579    -2.9898 C.3     
  39 H39           -0.5903     1.8844    -0.8355 H       
  40 H40            0.8354    -0.1716    -1.8261 H       
  41 H41            1.7649    -5.9663    -2.4823 H       
  42 H42            1.0702    -6.5212    -0.9403 H       
  43 H43           -1.2082    -6.3420    -1.9022 H       
  44 H44           -0.5136    -5.7871    -3.4442 H       
  45 H45           -1.5442    -7.7409    -4.6116 H       
  46 H46           -2.2389    -8.2958    -3.0696 H       
  47 H47            0.0714   -12.9898    -6.7830 H       
  48 H48            0.8734   -15.4854    -6.5064 H       
  49 H49            2.1170     1.3589    -0.4442 H       
  50 H50            1.4584     3.0270    -0.5217 H       
  51 H51            3.8086     2.4990     1.6638 H       
  52 H52            3.7398     2.7252     4.1180 H       
  53 H53            1.5842     2.5981     5.3005 H       
  54 H54           -0.4971     2.2540     4.0458 H       
  55 H55           -2.0727   -15.2397    -7.2243 H       
  56 H56           -0.6474   -15.3177    -8.3129 H       
  57 H57           -0.4624   -19.5251    -5.1423 H       
  58 H58           -1.2659   -21.0166    -6.9182 H       
  59 H59           -2.0641   -20.0868    -9.0535 H       
  60 H60           -2.0496   -17.6474    -9.4116 H       
  61 H61            0.7342    -7.9201    -3.6497 H       
  62 H62            0.0395    -8.4750    -2.1077 H       
@<TRIPOS>BOND
   1    1    2 1
   2    1   23 1
   3    1   22 1
   4    1   39 1
   5    2    3 am
   6    2   21 2
   7    3    4 1
   8    3   40 1
   9    4    5 1
  10    4   16 2
  11    5    6 1
  12    6    7 1
  13    6   17 2
  14    7    8 1
  15    7   41 1
  16    7   42 1
  17    8   38 1
  18    8   43 1
  19    8   44 1
  20    9   10 1
  21    9   38 1
  22    9   45 1
  23    9   46 1
  24   10   11 1
  25   10   18 2
  26   11   12 1
  27   12   13 1
  28   12   19 2
  29   13   14 am
  30   13   47 1
  31   14   15 1
  32   14   20 2
  33   15   30 1
  34   15   33 1
  35   15   48 1
  36   16   17 1
  37   18   19 1
  38   22   25 1
  39   23   24 1
  40   23   49 1
  41   23   50 1
  42   24   25 ar
  43   24   26 ar
  44   25   29 ar
  45   26   27 ar
  46   26   51 1
  47   27   28 ar
  48   27   52 1
  49   28   29 ar
  50   28   53 1
  51   29   54 1
  52   30   31 1
  53   31   32 ar
  54   31   34 ar
  55   32   33 1
  56   32   37 ar
  57   33   55 1
  58   33   56 1
  59   34   35 ar
  60   34   57 1
  61   35   36 ar
  62   35   58 1
  63   36   37 ar
  64   36   59 1
  65   37   60 1
  66   38   61 1
  67   38   62 1

#	End of record

