#	Name: ASD02198077
#	Creating user name:	WinNT
#	Creation time:	15. 06. 2019 20:18

#	Modifying user name:	WinNT
#	Modification time:	15. 06. 2019 20:18

#	Program:	/corina/corina34_cracker 3.40 0067  02.08.2006

@<TRIPOS>MOLECULE
ASD02198077
  49   53    0    0    0
SMALL
NO_CHARGES


@<TRIPOS>ATOM
   1 C1            -0.0155     1.3774    -0.0298 C.2     
   2 C2             0.0076    -0.0008    -0.0163 C.2     
   3 C3            -1.1778    -0.8009     0.0567 C.1     
   4 S4             1.5647     2.0108    -0.1231 S.3     
   5 C5             2.2773     0.4057    -0.1449 C.2     
   6 C6             1.2892    -0.5453    -0.0806 C.2     
   7 C7             3.6607     0.1338    -0.2177 C.2     
   8 C8             4.6246     1.2408    -0.2817 C.2     
   9 O9             4.0561    -1.0210    -0.2274 O.2     
  10 N10            1.5408    -1.9098    -0.0793 N.pl3   
  11 N11           -1.1607     2.1397     0.0194 N.pl3   
  12 N12           -2.1181    -1.4356     0.1146 N.1     
  13 C13            5.9810     1.0997    -0.3544 C.2     
  14 C14           -1.0705     3.5297     0.1320 C.ar    
  15 C15           -1.9798     4.3426    -0.5310 C.ar    
  16 C16            6.6773     2.2776    -0.4046 C.2     
  17 C17            5.9037     3.4004    -0.3739 C.2     
  18 S18            4.2067     2.9488    -0.2841 S.3     
  19 C19            6.4139     4.7859    -0.4160 C.ar    
  20 C20            5.5179     5.8554    -0.3780 C.ar    
  21 C21            6.0117     7.1473    -0.4178 C.ar    
  22 C22            7.3854     7.3300    -0.4943 C.ar    
  23 C23            8.2168     6.2249    -0.5284 C.ar    
  24 N24            7.7229     5.0049    -0.4842 N.ar    
  25 C25           -0.0743     4.1024     0.9122 C.ar    
  26 C26            0.0097     5.4756     1.0200 C.ar    
  27 C27           -0.8950     6.2860     0.3537 C.ar    
  28 C28           -1.8914     5.7186    -0.4202 C.ar    
  29 C29           -1.0126     7.7948     0.3122 C.3     
  30 C30           -1.9016     8.0973    -0.9126 C.3     
  31 C31           -2.7425     6.8078    -1.0373 C.3     
  32 H32            2.4536    -2.2347    -0.1255 H       
  33 H33            0.8038    -2.5388    -0.0323 H       
  34 H34           -2.0302     1.7121    -0.0241 H       
  35 H35            6.4662     0.1350    -0.3706 H       
  36 H36           -2.7578     3.8997    -1.1351 H       
  37 H37            7.7551     2.3147    -0.4635 H       
  38 H38            4.4544     5.6770    -0.3188 H       
  39 H39            5.3429     7.9949    -0.3904 H       
  40 H40            7.8016     8.3260    -0.5273 H       
  41 H41            9.2861     6.3646    -0.5882 H       
  42 H42            0.6328     3.4744     1.4337 H       
  43 H43            0.7842     5.9207     1.6270 H       
  44 H44           -1.4856     8.1625     1.2228 H       
  45 H45           -0.0291     8.2475     0.1866 H       
  46 H46           -2.5420     8.9588    -0.7232 H       
  47 H47           -1.2935     8.2538    -1.8035 H       
  48 H48           -2.9398     6.5848    -2.0858 H       
  49 H49           -3.6790     6.9125    -0.4894 H       
@<TRIPOS>BOND
   1    1    2 2
   2    1    4 1
   3    1   11 1
   4    2    3 1
   5    2    6 1
   6    3   12 3
   7    4    5 1
   8    5    6 2
   9    5    7 1
  10    6   10 1
  11    7    8 1
  12    7    9 2
  13    8   13 2
  14    8   18 1
  15   10   32 1
  16   10   33 1
  17   11   14 1
  18   11   34 1
  19   13   16 1
  20   13   35 1
  21   14   25 ar
  22   14   15 ar
  23   15   28 ar
  24   15   36 1
  25   16   17 2
  26   16   37 1
  27   17   18 1
  28   17   19 1
  29   19   20 ar
  30   19   24 ar
  31   20   21 ar
  32   20   38 1
  33   21   22 ar
  34   21   39 1
  35   22   23 ar
  36   22   40 1
  37   23   24 ar
  38   23   41 1
  39   25   26 ar
  40   25   42 1
  41   26   27 ar
  42   26   43 1
  43   27   28 ar
  44   27   29 1
  45   28   31 1
  46   29   30 1
  47   29   44 1
  48   29   45 1
  49   30   31 1
  50   30   46 1
  51   30   47 1
  52   31   48 1
  53   31   49 1

#	End of record

