#	Name: ASD03332178
#	Creating user name:	WinNT
#	Creation time:	15. 06. 2019 20:40

#	Modifying user name:	WinNT
#	Modification time:	15. 06. 2019 20:40

#	Program:	/corina/corina34_cracker 3.40 0067  02.08.2006

@<TRIPOS>MOLECULE
ASD03332178
  58   60    0    0    0
SMALL
NO_CHARGES


@<TRIPOS>ATOM
   1 C1            -0.1499     1.9221    -1.1043 C.2     
   2 N2            -0.1599     0.6729    -1.6257 N.pl3   
   3 C3             1.1295     0.2276    -1.6519 C.2     
   4 N4             1.9039     1.1592    -1.1474 N.2     
   5 C5             1.1435     2.2190    -0.7962 C.2     
   6 C6             1.6265     3.4717    -0.1886 C.2     
   7 O7             0.8398     4.3583     0.0837 O.2     
   8 N8             2.9401     3.6349     0.0652 N.am    
   9 C9            -1.3537    -0.0578    -2.0604 C.3     
  10 C10           -2.2184     0.8627    -2.9271 C.3     
  11 C11           -3.1695     1.6612    -2.0412 C.3     
  12 N12           -2.5493     1.9728    -0.7517 N.3     
  13 C13           -1.3533     2.8107    -0.9229 C.3     
  14 C14            1.5793    -1.0860    -2.1630 C.ar    
  15 C15            2.8404    -1.2166    -2.7450 C.ar    
  16 C16            3.2540    -2.4443    -3.2198 C.ar    
  17 C17            2.4208    -3.5443    -3.1201 C.ar    
  18 C18            1.1689    -3.4211    -2.5445 C.ar    
  19 C19            0.7462    -2.2004    -2.0598 C.ar    
  20 C20            3.4202     4.8802     0.6692 C.3     
  21 C21            3.2868     4.7936     2.1909 C.3     
  22 C22            4.8667     5.0911     0.3029 C.2     
  23 C23            1.8105     4.6498     2.5661 C.3     
  24 C24            4.0638     3.5789     2.7026 C.3     
  25 O25            3.8154     5.9815     2.7838 O.3     
  26 N26            5.3923     6.3320     0.3204 N.am    
  27 O27            5.5579     4.1441    -0.0076 O.2     
  28 C28            6.7671     6.5517    -0.1356 C.3     
  29 C29           -3.5130     2.6099     0.1557 C.3     
  30 H30            3.5675     2.9277    -0.1520 H       
  31 H31           -1.0552    -0.9305    -2.6412 H       
  32 H32           -1.9232    -0.3772    -1.1877 H       
  33 H33           -1.5764     1.5484    -3.4801 H       
  34 H34           -2.7959     0.2619    -3.6298 H       
  35 H35           -3.4329     2.5908    -2.5456 H       
  36 H36           -4.0747     1.0782    -1.8714 H       
  37 H37           -1.2158     3.4343    -0.0395 H       
  38 H38           -1.4746     3.4437    -1.8018 H       
  39 H39            3.4915    -0.3586    -2.8241 H       
  40 H40            4.2301    -2.5468    -3.6706 H       
  41 H41            2.7490    -4.5030    -3.4936 H       
  42 H42            0.5229    -4.2834    -2.4698 H       
  43 H43           -0.2312    -2.1056    -1.6103 H       
  44 H44            2.8262     5.7160     0.2994 H       
  45 H45            1.4359     3.6915     2.2063 H       
  46 H46            1.7048     4.6975     3.6499 H       
  47 H47            1.2392     5.4579     2.1094 H       
  48 H48            5.1155     3.6814     2.4353 H       
  49 H49            3.9687     3.5172     3.7867 H       
  50 H50            3.6605     2.6728     2.2504 H       
  51 H51            3.7637     5.9957     3.7493 H       
  52 H52            4.8603     7.0796     0.6349 H       
  53 H53            7.4516     5.9671     0.4791 H       
  54 H54            6.8585     6.2417    -1.1766 H       
  55 H55            7.0140     7.6098    -0.0486 H       
  56 H56           -4.3526     1.9359     0.3255 H       
  57 H57           -3.0264     2.8306     1.1057 H       
  58 H58           -3.8750     3.5360    -0.2909 H       
@<TRIPOS>BOND
   1    1    2 1
   2    1    5 2
   3    1   13 1
   4    2    3 1
   5    2    9 1
   6    3    4 2
   7    3   14 1
   8    4    5 1
   9    5    6 1
  10    6    7 2
  11    6    8 am
  12    8   20 1
  13    8   30 1
  14    9   10 1
  15    9   31 1
  16    9   32 1
  17   10   11 1
  18   10   33 1
  19   10   34 1
  20   11   12 1
  21   11   35 1
  22   11   36 1
  23   12   13 1
  24   12   29 1
  25   13   37 1
  26   13   38 1
  27   14   15 ar
  28   14   19 ar
  29   15   16 ar
  30   15   39 1
  31   16   17 ar
  32   16   40 1
  33   17   18 ar
  34   17   41 1
  35   18   19 ar
  36   18   42 1
  37   19   43 1
  38   20   21 1
  39   20   22 1
  40   20   44 1
  41   21   23 1
  42   21   24 1
  43   21   25 1
  44   22   26 am
  45   22   27 2
  46   23   45 1
  47   23   46 1
  48   23   47 1
  49   24   48 1
  50   24   49 1
  51   24   50 1
  52   25   51 1
  53   26   28 1
  54   26   52 1
  55   28   53 1
  56   28   54 1
  57   28   55 1
  58   29   56 1
  59   29   57 1
  60   29   58 1

#	End of record

