#	Name: ASD01884713
#	Creating user name:	WinNT
#	Creation time:	15. 06. 2019 19:48

#	Modifying user name:	WinNT
#	Modification time:	15. 06. 2019 19:48

#	Program:	/corina/corina34_cracker 3.40 0067  02.08.2006

@<TRIPOS>MOLECULE
ASD01884713
  35   37    0    0    0
SMALL
NO_CHARGES


@<TRIPOS>ATOM
   1 C1            -0.0170     1.4032     0.0098 C.2     
   2 C2             0.0021    -0.0041     0.0020 C.2     
   3 C3             1.1603     2.0882     0.0022 C.2     
   4 C4             2.3749     1.3684    -0.0133 C.2     
   5 C5             2.3525     0.0040    -0.0204 C.2     
   6 N6             1.1737    -0.6666    -0.0123 N.am    
   7 C7             3.6702     2.0924    -0.0222 C.ar    
   8 H8             1.1647     3.1682     0.0076 H       
   9 Cl9           -1.5277     2.2584     0.0216 Cl      
  10 O10           -1.0479    -0.6262     0.0087 O.2     
  11 C11            1.1754    -2.1316    -0.0202 C.3     
  12 C12            1.1902    -2.6415     1.3978 C.ar    
  13 C13           -0.0004    -2.8769     2.0599 C.ar    
  14 C14            0.0125    -3.3446     3.3604 C.ar    
  15 C15            1.2172    -3.5772     3.9997 C.ar    
  16 C16            2.4084    -3.3415     3.3366 C.ar    
  17 C17            2.3942    -2.8792     2.0342 C.ar    
  18 C18            4.0214     2.8837    -1.1141 C.ar    
  19 C19            5.2271     3.5553    -1.1169 C.ar    
  20 C20            6.0865     3.4436    -0.0388 C.ar    
  21 C21            5.7429     2.6595     1.0477 C.ar    
  22 C22            4.5371     1.9881     1.0637 C.ar    
  23 Cl23           1.2341    -4.1641     5.6334 Cl      
  24 H24            3.2816    -0.5466    -0.0326 H       
  25 H25            0.2809    -2.4933    -0.5271 H       
  26 H26            2.0607    -2.4910    -0.5448 H       
  27 H27           -0.9407    -2.6949     1.5608 H       
  28 H28           -0.9177    -3.5281     3.8776 H       
  29 H29            3.3491    -3.5230     3.8351 H       
  30 H30            3.3240    -2.6951     1.5164 H       
  31 H31            3.3515     2.9711    -1.9567 H       
  32 H32            5.5004     4.1689    -1.9626 H       
  33 H33            7.0293     3.9703    -0.0454 H       
  34 H34            6.4176     2.5758     1.8869 H       
  35 H35            4.2699     1.3761     1.9125 H       
@<TRIPOS>BOND
   1    1    2 1
   2    1    3 2
   3    1    9 1
   4    2   10 2
   5    2    6 am
   6    3    4 1
   7    3    8 1
   8    4    5 2
   9    4    7 1
  10    5    6 1
  11    5   24 1
  12    6   11 1
  13    7   18 ar
  14    7   22 ar
  15   11   12 1
  16   11   25 1
  17   11   26 1
  18   12   13 ar
  19   12   17 ar
  20   13   14 ar
  21   13   27 1
  22   14   15 ar
  23   14   28 1
  24   15   16 ar
  25   15   23 1
  26   16   17 ar
  27   16   29 1
  28   17   30 1
  29   18   19 ar
  30   18   31 1
  31   19   20 ar
  32   19   32 1
  33   20   21 ar
  34   20   33 1
  35   21   22 ar
  36   21   34 1
  37   22   35 1

#	End of record

