#	Name: ASD01840021
#	Creating user name:	WinNT
#	Creation time:	15. 06. 2019 19:37

#	Modifying user name:	WinNT
#	Modification time:	15. 06. 2019 19:37

#	Program:	/corina/corina34_cracker 3.40 0067  02.08.2006

@<TRIPOS>MOLECULE
ASD01840021
  26   28    0    0    0
SMALL
NO_CHARGES


@<TRIPOS>ATOM
   1 C1            -0.0166     1.3734     0.0096 C.ar    
   2 C2             0.0021    -0.0041     0.0020 C.ar    
   3 N3             1.1533    -0.6539    -0.0125 N.ar    
   4 N4             2.2848    -0.0541    -0.0200 N.ar    
   5 C5             1.2218     2.0548     0.0014 C.ar    
   6 C6             2.8316     3.7742    -0.0055 C.2     
   7 C7             1.5084     3.4774     0.0059 C.2     
   8 C8             2.3874     1.2770    -0.0139 C.ar    
   9 S9             3.8049     2.3167    -0.0224 S.3     
  10 N10            0.5161     4.4483     0.0197 N.pl3   
  11 C11            3.3749     5.1318    -0.0047 C.2     
  12 N12            4.7088     5.3238    -0.0166 N.am    
  13 O13            2.6222     6.0887     0.0069 O.2     
  14 C14            5.2531     6.6839    -0.0157 C.3     
  15 C15            6.6630     6.8803     0.5452 C.3     
  16 C16            6.4187     6.9790    -0.9620 C.3     
  17 H17           -0.9500     1.9166     0.0170 H       
  18 H18           -0.9268    -0.5550     0.0083 H       
  19 H19            0.7569     5.3879     0.0220 H       
  20 H20           -0.4180     4.1870     0.0272 H       
  21 H21            5.3085     4.5614    -0.0258 H       
  22 H22            4.5284     7.4802     0.1542 H       
  23 H23            6.8659     7.8059     1.0838 H       
  24 H24            7.1855     5.9975     0.9136 H       
  25 H25            6.7805     6.1611    -1.5851 H       
  26 H26            6.4609     7.9695    -1.4148 H       
@<TRIPOS>BOND
   1    1    2 ar
   2    1    5 ar
   3    1   17 1
   4    2    3 ar
   5    2   18 1
   6    3    4 ar
   7    4    8 ar
   8    5    8 ar
   9    5    7 1
  10    6    7 2
  11    6    9 1
  12    6   11 1
  13    7   10 1
  14    8    9 1
  15   10   19 1
  16   10   20 1
  17   11   12 am
  18   11   13 2
  19   12   14 1
  20   12   21 1
  21   14   15 1
  22   14   16 1
  23   14   22 1
  24   15   16 1
  25   15   23 1
  26   15   24 1
  27   16   25 1
  28   16   26 1

#	End of record

