#	Name: ASD03730674
#	Creating user name:	WinNT
#	Creation time:	15. 06. 2019 20:44

#	Modifying user name:	WinNT
#	Modification time:	15. 06. 2019 20:44

#	Program:	/corina/corina34_cracker 3.40 0067  02.08.2006

@<TRIPOS>MOLECULE
ASD03730674
  55   61    0    0    0
SMALL
NO_CHARGES


@<TRIPOS>ATOM
   1 O1            -0.0309     0.7200    -0.0273 O.3     
   2 C2            -0.0582    -0.6102    -0.3252 C.ar    
   3 C3             1.1652    -1.0365    -0.8369 C.ar    
   4 C4             2.0711     0.1647    -0.8414 C.3     
   5 C5             1.3371     1.1606     0.0674 C.3     
   6 O6            -1.7847    -3.9021    -0.5014 O.3     
   7 C7            -0.9140    -2.8564    -0.5607 C.ar    
   8 C8             0.3109    -3.2531    -1.0826 C.ar    
   9 C9             0.1987    -4.7291    -1.4104 C.3     
  10 C10           -1.3325    -4.9477    -1.3780 C.3     
  11 C11            1.3429    -2.3498    -1.2160 C.ar    
  12 C12           -1.0913    -1.5289    -0.1877 C.ar    
  13 N13            4.3088     0.1805    -1.3045 N.am    
  14 C14            3.4447    -0.1548    -0.3256 C.2     
  15 C15            2.2828     0.7168    -2.2197 C.ar    
  16 C16            1.4277     1.1909    -3.2048 C.ar    
  17 C17            1.9495     1.6489    -4.4142 C.ar    
  18 C18            3.3144     1.6270    -4.6221 C.ar    
  19 C19            4.1643     1.1558    -3.6423 C.ar    
  20 C20            3.6573     0.6951    -2.4284 C.ar    
  21 O21            3.7222    -0.6221     0.7586 O.2     
  22 C22            5.7618     0.0238    -1.2018 C.3     
  23 C23            6.1568    -1.3399    -1.7071 C.ar    
  24 C24            6.5625    -1.4909    -3.0199 C.ar    
  25 C25            6.9242    -2.7495    -3.4746 C.ar    
  26 C26            6.8642    -3.8141    -2.5880 C.ar    
  27 C27            6.4488    -3.5866    -1.2899 C.ar    
  28 N28            6.1168    -2.3743    -0.8904 N.ar    
  29 C29           -0.8921     0.4542    -3.7711 C.ar    
  30 C30           -0.0377     1.2107    -2.9716 C.ar    
  31 C31           -0.5830     1.9879    -1.9465 C.ar    
  32 C32           -1.9561     1.9717    -1.7696 C.ar    
  33 C33           -2.7366     1.1943    -2.6052 C.ar    
  34 N34           -2.1929     0.4702    -3.5646 N.ar    
  35 H35            1.4428     2.1783    -0.3086 H       
  36 H36            1.6974     1.0865     1.0934 H       
  37 H37            0.6015    -4.9400    -2.4010 H       
  38 H38            0.6949    -5.3353    -0.6525 H       
  39 H39           -1.5740    -5.9278    -0.9667 H       
  40 H40           -1.7606    -4.8292    -2.3733 H       
  41 H41            2.2922    -2.6712    -1.6185 H       
  42 H42           -2.0416    -1.2086     0.2132 H       
  43 H43            1.2892     2.0186    -5.1847 H       
  44 H44            3.7198     1.9810    -5.5585 H       
  45 H45            5.2300     1.1436    -3.8174 H       
  46 H46            6.2531     0.7899    -1.8016 H       
  47 H47            6.0657     0.1273    -0.1602 H       
  48 H48            6.5968    -0.6392    -3.6830 H       
  49 H49            7.2448    -2.8975    -4.4953 H       
  50 H50            7.1384    -4.8084    -2.9081 H       
  51 H51            6.3993    -4.4104    -0.5932 H       
  52 H52           -0.4845    -0.1477    -4.5699 H       
  53 H53            0.0506     2.5858    -1.3082 H       
  54 H54           -2.4126     2.5598    -0.9872 H       
  55 H55           -3.8080     1.1792    -2.4701 H       
@<TRIPOS>BOND
   1    1    2 1
   2    1    5 1
   3    2    3 ar
   4    2   12 ar
   5    3    4 1
   6    3   11 ar
   7    4    5 1
   8    4   14 1
   9    4   15 1
  10    5   35 1
  11    5   36 1
  12    6    7 1
  13    6   10 1
  14    7    8 ar
  15    7   12 ar
  16    8    9 1
  17    8   11 ar
  18    9   10 1
  19    9   37 1
  20    9   38 1
  21   10   39 1
  22   10   40 1
  23   11   41 1
  24   12   42 1
  25   13   14 am
  26   13   20 1
  27   13   22 1
  28   14   21 2
  29   15   16 ar
  30   15   20 ar
  31   16   17 ar
  32   16   30 1
  33   17   18 ar
  34   17   43 1
  35   18   19 ar
  36   18   44 1
  37   19   20 ar
  38   19   45 1
  39   22   23 1
  40   22   46 1
  41   22   47 1
  42   23   24 ar
  43   23   28 ar
  44   24   25 ar
  45   24   48 1
  46   25   26 ar
  47   25   49 1
  48   26   27 ar
  49   26   50 1
  50   27   28 ar
  51   27   51 1
  52   29   30 ar
  53   29   34 ar
  54   29   52 1
  55   30   31 ar
  56   31   32 ar
  57   31   53 1
  58   32   33 ar
  59   32   54 1
  60   33   34 ar
  61   33   55 1

#	End of record

