#	Name: ASD01230108
#	Creating user name:	WinNT
#	Creation time:	15. 06. 2019 19:11

#	Modifying user name:	WinNT
#	Modification time:	15. 06. 2019 19:11

#	Program:	/corina/corina34_cracker 3.40 0067  02.08.2006

@<TRIPOS>MOLECULE
ASD01230108
  43   47    0    0    0
SMALL
NO_CHARGES


@<TRIPOS>ATOM
   1 N1            -0.0167     1.3833     0.0096 N.am    
   2 C2             0.0021    -0.0041     0.0020 C.2     
   3 N3            -1.1482    -0.7330     0.0091 N.pl3   
   4 C4            -2.3871    -0.1004     0.0243 C.ar    
   5 C5            -2.4445     1.3039     0.0324 C.ar    
   6 C6            -1.1817     2.0628     0.0300 C.2     
   7 C7             1.0444    -0.8829    -0.0127 C.2     
   8 C8             0.5123    -2.1835    -0.0145 C.2     
   9 N9            -0.8011    -2.0916    -0.0015 N.2     
  10 C10           -3.5613    -0.8343     0.0310 C.ar    
  11 C11           -4.7862    -0.1721     0.0457 C.ar    
  12 C12           -4.8330     1.2240     0.0533 C.ar    
  13 C13           -3.6784     1.9546     0.0467 C.ar    
  14 C14            1.2958    -3.4436    -0.0287 C.ar    
  15 C15            1.2486     2.1216     0.0015 C.3     
  16 C16            2.6885    -3.4004    -0.0360 C.ar    
  17 O17           -1.1896     3.2794     0.0372 O.2     
  18 C18           -6.0471    -0.9528     0.0530 C.ar    
  19 C19           -7.2847    -0.3031     0.0619 C.ar    
  20 C20            0.6409    -4.6736    -0.0290 C.ar    
  21 C21            1.3733    -5.8429    -0.0423 C.ar    
  22 C22            2.7579    -5.7952    -0.0553 C.ar    
  23 C23            3.4131    -4.5745    -0.0493 C.ar    
  24 F24            3.4712    -6.9425    -0.0683 F       
  25 C25           -6.0175    -2.3463     0.0452 C.ar    
  26 N26           -7.1368    -3.0406     0.0507 N.ar    
  27 C27           -8.3191    -2.4554     0.0642 C.ar    
  28 C28           -8.4325    -1.0772     0.0680 C.ar    
  29 H29            2.0931    -0.6251    -0.0213 H       
  30 H30           -3.5274    -1.9138     0.0245 H       
  31 H31           -5.7876     1.7289     0.0640 H       
  32 H32           -3.7209     3.0338     0.0525 H       
  33 H33            1.5526     2.3102    -1.0281 H       
  34 H34            1.1188     3.0706     0.5217 H       
  35 H35            2.0158     1.5333     0.5049 H       
  36 H36            3.2001    -2.4492    -0.0317 H       
  37 H37           -7.3441     0.7752     0.0644 H       
  38 H38           -0.4384    -4.7116    -0.0185 H       
  39 H39            0.8666    -6.7966    -0.0422 H       
  40 H40            4.4926    -4.5418    -0.0598 H       
  41 H41           -5.0683    -2.8614     0.0341 H       
  42 H42           -9.2124    -3.0622     0.0683 H       
  43 H43           -9.4060    -0.6098     0.0791 H       
@<TRIPOS>BOND
   1    1    2 1
   2    1   15 1
   3    1    6 am
   4    2    3 1
   5    2    7 2
   6    3    4 1
   7    3    9 1
   8    4    5 ar
   9    4   10 ar
  10    5    6 1
  11    5   13 ar
  12    6   17 2
  13    7    8 1
  14    7   29 1
  15    8    9 2
  16    8   14 1
  17   10   11 ar
  18   10   30 1
  19   11   12 ar
  20   11   18 1
  21   12   13 ar
  22   12   31 1
  23   13   32 1
  24   14   20 ar
  25   14   16 ar
  26   15   33 1
  27   15   34 1
  28   15   35 1
  29   16   23 ar
  30   16   36 1
  31   18   25 ar
  32   18   19 ar
  33   19   28 ar
  34   19   37 1
  35   20   21 ar
  36   20   38 1
  37   21   22 ar
  38   21   39 1
  39   22   23 ar
  40   22   24 1
  41   23   40 1
  42   25   26 ar
  43   25   41 1
  44   26   27 ar
  45   27   28 ar
  46   27   42 1
  47   28   43 1

#	End of record

