#	Name: ASD01884599
#	Creating user name:	WinNT
#	Creation time:	15. 06. 2019 19:48

#	Modifying user name:	WinNT
#	Modification time:	15. 06. 2019 19:48

#	Program:	/corina/corina34_cracker 3.40 0067  02.08.2006

@<TRIPOS>MOLECULE
ASD01884599
  46   48    0    0    0
SMALL
NO_CHARGES


@<TRIPOS>ATOM
   1 C1             0.7744     1.0541     1.9440 C.2     
   2 C2             0.4971    -0.1525     1.3732 C.2     
   3 C3             1.2943    -0.6109     0.3125 C.2     
   4 C4             2.3245     0.1426    -0.1322 C.2     
   5 N5             2.6010     1.3495     0.4403 N.am    
   6 C6             1.8528     1.8145     1.4589 C.2     
   7 O7             2.1111     2.8957     1.9612 O.2     
   8 C8             3.6336     2.0842    -0.0183 C.2     
   9 C9             1.0020    -1.9426    -0.3296 C.3     
  10 C10            1.6734    -3.0381     0.4579 C.ar    
  11 C11            1.0006    -3.6522     1.4980 C.ar    
  12 C12            1.6139    -4.6567     2.2213 C.ar    
  13 C13            2.9060    -5.0492     1.9034 C.ar    
  14 C14            3.5790    -4.4314     0.8593 C.ar    
  15 C15            2.9592    -3.4313     0.1354 C.ar    
  16 O16            3.5117    -6.0368     2.6138 O.3     
  17 C17            4.8425    -6.3889     2.2306 C.3     
  18 N18            3.5181     3.4237    -0.1131 N.am    
  19 O19            4.6688     1.5391    -0.3462 O.2     
  20 C20            2.1954     4.0362    -0.2608 C.3     
  21 C21            4.6617     4.2296    -0.0704 C.ar    
  22 C22            4.5402     5.6123    -0.1128 C.ar    
  23 C23            5.6701     6.4052    -0.0701 C.ar    
  24 C24            6.9227     5.8230     0.0149 C.ar    
  25 C25            7.0465     4.4453     0.0568 C.ar    
  26 C26            5.9194     3.6480     0.0202 C.ar    
  27 Cl27           8.3410     6.8225     0.0684 Cl      
  28 H28            0.1688     1.4243     2.7579 H       
  29 H29           -0.3274    -0.7498     1.7336 H       
  30 H30            2.9349    -0.2145    -0.9484 H       
  31 H31           -0.0748    -2.1115    -0.3418 H       
  32 H32            1.3817    -1.9445    -1.3513 H       
  33 H33           -0.0051    -3.3462     1.7453 H       
  34 H34            1.0880    -5.1359     3.0339 H       
  35 H35            4.5849    -4.7351     0.6098 H       
  36 H36            3.4826    -2.9500    -0.6775 H       
  37 H37            5.2073    -7.1876     2.8765 H       
  38 H38            4.8444    -6.7295     1.1952 H       
  39 H39            5.4910    -5.5183     2.3279 H       
  40 H40            1.7307     4.1382     0.7199 H       
  41 H41            2.2997     5.0203    -0.7177 H       
  42 H42            1.5718     3.4056    -0.8945 H       
  43 H43            3.5629     6.0671    -0.1795 H       
  44 H44            5.5762     7.4806    -0.1034 H       
  45 H45            8.0252     3.9934     0.1225 H       
  46 H46            6.0166     2.5729     0.0533 H       
@<TRIPOS>BOND
   1    1    2 2
   2    1    6 1
   3    1   28 1
   4    2    3 1
   5    2   29 1
   6    3    4 2
   7    3    9 1
   8    4    5 1
   9    4   30 1
  10    5    6 am
  11    5    8 am
  12    6    7 2
  13    8   18 am
  14    8   19 2
  15    9   10 1
  16    9   31 1
  17    9   32 1
  18   10   11 ar
  19   10   15 ar
  20   11   12 ar
  21   11   33 1
  22   12   13 ar
  23   12   34 1
  24   13   14 ar
  25   13   16 1
  26   14   15 ar
  27   14   35 1
  28   15   36 1
  29   16   17 1
  30   17   37 1
  31   17   38 1
  32   17   39 1
  33   18   20 1
  34   18   21 1
  35   20   40 1
  36   20   41 1
  37   20   42 1
  38   21   22 ar
  39   21   26 ar
  40   22   23 ar
  41   22   43 1
  42   23   24 ar
  43   23   44 1
  44   24   25 ar
  45   24   27 1
  46   25   26 ar
  47   25   45 1
  48   26   46 1

#	End of record

