#	Name: ASD08178305
#	Creating user name:	WinNT
#	Creation time:	15. 06. 2019 21:18

#	Modifying user name:	WinNT
#	Modification time:	15. 06. 2019 21:18

#	Program:	/corina/corina34_cracker 3.40 0067  02.08.2006

@<TRIPOS>MOLECULE
ASD08178305
  79   83    0    0    0
SMALL
NO_CHARGES


@<TRIPOS>ATOM
   1 N1            -0.0168     1.3902     0.0097 N.am    
   2 C2            -0.2173     0.0103     0.0231 C.ar    
   3 C3             0.8683    -0.8557    -0.0926 C.ar    
   4 N4            -1.4399    -0.4832     0.1513 N.ar    
   5 N5            -1.6667    -1.7463     0.1686 N.ar    
   6 C6            -0.7002    -2.6368     0.0602 C.ar    
   7 C7             0.6159    -2.2190    -0.0733 C.ar    
   8 C8            -1.0247    -4.1082     0.0874 C.3     
   9 C9            -1.8115    -4.4335     1.3586 C.3     
  10 C10           -2.1410    -5.9273     1.3862 C.3     
  11 C11           -2.9278    -6.2527     2.6574 C.3     
  12 C12           -3.2523    -7.7241     2.6845 C.2     
  13 N13           -2.5213    -8.6581     3.2049 N.2     
  14 N14           -2.9690    -9.8359     3.1257 N.2     
  15 C15           -4.1130   -10.0077     2.5350 C.2     
  16 S16           -4.6995    -8.4828     2.0200 S.3     
  17 N17           -4.7575   -11.2270     2.3553 N.am    
  18 C18           -4.1929   -12.3617     2.8139 C.2     
  19 C19           -4.8913   -13.6828     2.6192 C.3     
  20 O20           -3.1229   -12.3195     3.3832 O.2     
  21 C21           -4.0568   -14.7853     3.2184 C.ar    
  22 C22           -1.0750     2.2250     0.0167 C.2     
  23 C23           -0.8601     3.7130     0.1198 C.3     
  24 O24           -2.2000     1.7786    -0.0599 O.2     
  25 C25           -4.1648   -15.0778     4.5708 C.ar    
  26 C26           -3.3986   -16.0909     5.1240 C.ar    
  27 C27           -2.5215   -16.8137     4.3196 C.ar    
  28 C28           -2.4193   -16.5139     2.9622 C.ar    
  29 C29           -3.1899   -15.5062     2.4183 C.ar    
  30 C30           -2.1935     4.4152     0.1067 C.ar    
  31 C31           -2.8565     4.6619     1.2943 C.ar    
  32 C32           -4.0796     5.3059     1.2822 C.ar    
  33 C33           -4.6395     5.7036     0.0825 C.ar    
  34 C34           -3.9760     5.4577    -1.1051 C.ar    
  35 C35           -2.7509     4.8175    -1.0926 C.ar    
  36 C36           -5.0820   -14.7248     6.7357 C.3     
  37 C37           -6.0937   -13.8259     7.4494 C.3     
  38 O38           -5.0220   -14.3700     5.3527 O.3     
  39 O39           -7.4028   -14.0812     6.9364 O.3     
  40 C40           -1.6976   -17.8997     4.9058 C.ar    
  41 C41           -0.8198   -18.6234     4.1014 C.ar    
  42 C42           -0.0555   -19.6322     4.6520 C.ar    
  43 C43           -0.1601   -19.9256     5.9996 C.ar    
  44 C44           -1.0303   -19.2107     6.8028 C.ar    
  45 C45           -1.7948   -18.1957     6.2639 C.ar    
  46 H46            0.8842     1.7494    -0.0006 H       
  47 H47            1.8745    -0.4770    -0.1944 H       
  48 H48            1.4199    -2.9345    -0.1636 H       
  49 H49           -1.6240    -4.3643    -0.7864 H       
  50 H50           -0.0997    -4.6845     0.0751 H       
  51 H51           -1.2123    -4.1774     2.2323 H       
  52 H52           -2.7366    -3.8571     1.3708 H       
  53 H53           -2.7402    -6.1835     0.5124 H       
  54 H54           -1.2159    -6.5037     1.3739 H       
  55 H55           -2.3286    -5.9966     3.5311 H       
  56 H56           -3.8529    -5.6763     2.6696 H       
  57 H57           -5.6133   -11.2607     1.9000 H       
  58 H58           -5.8640   -13.6554     3.1104 H       
  59 H59           -5.0274   -13.8683     1.5537 H       
  60 H60           -0.3385     3.9413     1.0493 H       
  61 H61           -0.2620     4.0532    -0.7255 H       
  62 H62           -3.4811   -16.3192     6.1764 H       
  63 H63           -1.7398   -17.0723     2.3355 H       
  64 H64           -3.1097   -15.2750     1.3664 H       
  65 H65           -2.4191     4.3512     2.2316 H       
  66 H66           -4.5979     5.4981     2.2100 H       
  67 H67           -5.5954     6.2062     0.0730 H       
  68 H68           -4.4136     5.7681    -2.0424 H       
  69 H69           -2.2326     4.6254    -2.0204 H       
  70 H70           -4.0985   -14.5948     7.1872 H       
  71 H71           -5.3906   -15.7659     6.8306 H       
  72 H72           -6.0752   -14.0357     8.5188 H       
  73 H73           -5.8343   -12.7809     7.2796 H       
  74 H74           -8.0965   -13.5451     7.3444 H       
  75 H75           -0.7378   -18.3956     3.0489 H       
  76 H76            0.6253   -20.1937     4.0293 H       
  77 H77            0.4396   -20.7160     6.4263 H       
  78 H78           -1.1083   -19.4441     7.8544 H       
  79 H79           -2.4739   -17.6382     6.8919 H       
@<TRIPOS>BOND
   1    1    2 1
   2    1   22 am
   3    1   46 1
   4    2    3 ar
   5    2    4 ar
   6    3    7 ar
   7    3   47 1
   8    4    5 ar
   9    5    6 ar
  10    6    7 ar
  11    6    8 1
  12    7   48 1
  13    8    9 1
  14    8   49 1
  15    8   50 1
  16    9   10 1
  17    9   51 1
  18    9   52 1
  19   10   11 1
  20   10   53 1
  21   10   54 1
  22   11   12 1
  23   11   55 1
  24   11   56 1
  25   12   13 2
  26   12   16 1
  27   13   14 1
  28   14   15 2
  29   15   16 1
  30   15   17 1
  31   17   18 am
  32   17   57 1
  33   18   19 1
  34   18   20 2
  35   19   21 1
  36   19   58 1
  37   19   59 1
  38   21   25 ar
  39   21   29 ar
  40   22   23 1
  41   22   24 2
  42   23   30 1
  43   23   60 1
  44   23   61 1
  45   25   26 ar
  46   25   38 1
  47   26   27 ar
  48   26   62 1
  49   27   28 ar
  50   27   40 1
  51   28   29 ar
  52   28   63 1
  53   29   64 1
  54   30   31 ar
  55   30   35 ar
  56   31   32 ar
  57   31   65 1
  58   32   33 ar
  59   32   66 1
  60   33   34 ar
  61   33   67 1
  62   34   35 ar
  63   34   68 1
  64   35   69 1
  65   36   37 1
  66   36   38 1
  67   36   70 1
  68   36   71 1
  69   37   39 1
  70   37   72 1
  71   37   73 1
  72   39   74 1
  73   40   41 ar
  74   40   45 ar
  75   41   42 ar
  76   41   75 1
  77   42   43 ar
  78   42   76 1
  79   43   44 ar
  80   43   77 1
  81   44   45 ar
  82   44   78 1
  83   45   79 1

#	End of record

