#	Name: ASD01900974
#	Creating user name:	WinNT
#	Creation time:	15. 06. 2019 19:52

#	Modifying user name:	WinNT
#	Modification time:	15. 06. 2019 19:52

#	Program:	/corina/corina34_cracker 3.40 0067  02.08.2006

@<TRIPOS>MOLECULE
ASD01900974
  55   59    0    0    0
SMALL
NO_CHARGES


@<TRIPOS>ATOM
   1 C1             0.3014     1.2891     0.7989 C.ar    
   2 C2             0.3596    -0.0878     0.7596 C.ar    
   3 C3             1.4992    -0.7313     0.3030 C.ar    
   4 C4             2.5963    -0.0021    -0.1130 C.ar    
   5 C5             2.5552     1.3820    -0.0767 C.ar    
   6 C6             1.3978     2.0392     0.3742 C.ar    
   7 N7             3.6484     2.1493    -0.4702 N.pl3   
   8 C8             3.4034     3.5138    -0.9429 C.3     
   9 N9             2.3686     4.2094    -0.1813 N.am    
  10 C10            1.3668     3.5121     0.3963 C.2     
  11 C11            2.4160     5.6028    -0.0497 C.ar    
  12 C12            1.7154     6.4087    -0.9374 C.ar    
  13 C13            1.7627     7.7826    -0.8070 C.ar    
  14 C14            2.5098     8.3578     0.2106 C.ar    
  15 C15            3.2099     7.5533     1.0978 C.ar    
  16 C16            3.1590     6.1791     0.9721 C.ar    
  17 O17            0.4443     4.0965     0.9316 O.2     
  18 O18            2.5562     9.7107     0.3381 O.3     
  19 C19            4.6869     4.3349    -1.1288 C.3     
  20 C20            3.3450    10.2348     1.4083 C.3     
  21 N21            4.0705     4.8231    -2.3830 N.3     
  22 C22            3.2225     3.6120    -2.4635 C.3     
  23 C23            5.0521     4.8521    -3.4755 C.3     
  24 C24            4.3443     5.1143    -4.7799 C.ar    
  25 C25            4.0611     4.0660    -5.6356 C.ar    
  26 C26            3.4120     4.3065    -6.8319 C.ar    
  27 C27            3.0456     5.5953    -7.1727 C.ar    
  28 C28            3.3279     6.6432    -6.3168 C.ar    
  29 C29            3.9733     6.4020    -5.1181 C.ar    
  30 C30            4.2765     7.5439    -4.1826 C.3     
  31 F31            3.8084     8.7392    -4.7386 F       
  32 F32            3.6439     7.3214    -2.9548 F       
  33 F33            5.6589     7.6311    -3.9858 F       
  34 H34           -0.5907     1.7845     1.1526 H       
  35 H35           -0.4891    -0.6696     1.0875 H       
  36 H36            1.5299    -1.8104     0.2726 H       
  37 H37            3.4826    -0.5091    -0.4648 H       
  38 H38            4.5485     1.7898    -0.4320 H       
  39 H39            1.1340     5.9610    -1.7298 H       
  40 H40            1.2181     8.4095    -1.4976 H       
  41 H41            3.7914     8.0019     1.8897 H       
  42 H42            3.7005     5.5529     1.6656 H       
  43 H43            4.8252     5.1108    -0.3759 H       
  44 H44            5.5785     3.7275    -1.2846 H       
  45 H45            3.2959    11.3236     1.3964 H       
  46 H46            2.9604     9.8640     2.3584 H       
  47 H47            4.3803     9.9164     1.2863 H       
  48 H48            3.6804     2.7906    -3.0146 H       
  49 H49            2.1966     3.8134    -2.7720 H       
  50 H50            5.7782     5.6437    -3.2906 H       
  51 H51            5.5662     3.8924    -3.5276 H       
  52 H52            4.3473     3.0592    -5.3694 H       
  53 H53            3.1914     3.4876    -7.5006 H       
  54 H54            2.5391     5.7833    -8.1078 H       
  55 H55            3.0420     7.6500    -6.5832 H       
@<TRIPOS>BOND
   1    1    2 ar
   2    1    6 ar
   3    1   34 1
   4    2    3 ar
   5    2   35 1
   6    3    4 ar
   7    3   36 1
   8    4    5 ar
   9    4   37 1
  10    5    7 1
  11    5    6 ar
  12    6   10 1
  13    7    8 1
  14    7   38 1
  15    8    9 1
  16    8   19 1
  17    8   22 1
  18    9   10 am
  19    9   11 1
  20   10   17 2
  21   11   12 ar
  22   11   16 ar
  23   12   13 ar
  24   12   39 1
  25   13   14 ar
  26   13   40 1
  27   14   15 ar
  28   14   18 1
  29   15   16 ar
  30   15   41 1
  31   16   42 1
  32   18   20 1
  33   19   21 1
  34   19   43 1
  35   19   44 1
  36   20   45 1
  37   20   46 1
  38   20   47 1
  39   21   23 1
  40   21   22 1
  41   22   48 1
  42   22   49 1
  43   23   24 1
  44   23   50 1
  45   23   51 1
  46   24   25 ar
  47   24   29 ar
  48   25   26 ar
  49   25   52 1
  50   26   27 ar
  51   26   53 1
  52   27   28 ar
  53   27   54 1
  54   28   29 ar
  55   28   55 1
  56   29   30 1
  57   30   31 1
  58   30   32 1
  59   30   33 1

#	End of record

