#	Name: ASD01912756
#	Creating user name:	WinNT
#	Creation time:	15. 06. 2019 20:00

#	Modifying user name:	WinNT
#	Modification time:	15. 06. 2019 20:00

#	Program:	/corina/corina34_cracker 3.40 0067  02.08.2006

@<TRIPOS>MOLECULE
ASD01912756
  38   41    0    0    0
SMALL
NO_CHARGES


@<TRIPOS>ATOM
   1 C1            -0.0165     1.3668     0.0096 C.2     
   2 N2             0.0021    -0.0041     0.0020 N.pl3   
   3 C3            -1.2026    -0.6917     0.0094 C.2     
   4 C4            -2.3632    -0.0490     0.0236 C.2     
   5 N5            -2.4362     1.3300     0.0317 N.am    
   6 C6            -1.3026     2.0665     0.0309 C.2     
   7 C7             1.3011     1.7836    -0.0008 C.2     
   8 C8             2.0549     0.6112    -0.0143 C.2     
   9 N9             1.2243    -0.4045    -0.0118 N.2     
  10 O10           -1.3500     3.2834     0.0380 O.2     
  11 C11           -3.7417     1.9945     0.0473 C.3     
  12 C12            3.5593     0.5254    -0.0291 C.3     
  13 O13            4.1117     1.8433    -0.0273 O.3     
  14 C14            5.4653     1.9442    -0.0397 C.ar    
  15 C15            6.0885     3.1896    -0.0389 C.ar    
  16 C16            7.4669     3.2500    -0.0513 C.ar    
  17 N17            8.1919     2.1474    -0.0637 N.ar    
  18 C18            7.6382     0.9496    -0.0648 C.ar    
  19 C19            6.2662     0.8049    -0.0476 C.ar    
  20 C20           -4.1829     2.2181     1.4951 C.3     
  21 C21           -5.4730     3.0073     1.7266 C.3     
  22 C22           -5.4466     1.4967     1.9679 C.3     
  23 H23           -1.1956    -1.7717     0.0032 H       
  24 H24           -3.2788    -0.6218     0.0285 H       
  25 H25            1.6679     2.7994     0.0006 H       
  26 H26           -3.6665     2.9552    -0.4621 H       
  27 H27           -4.4740     1.3689    -0.4632 H       
  28 H28            3.9013    -0.0131     0.8548 H       
  29 H29            3.8843    -0.0036    -0.9251 H       
  30 H30            5.5010     4.0957    -0.0292 H       
  31 H31            7.9585     4.2115    -0.0512 H       
  32 H32            8.2669     0.0715    -0.0755 H       
  33 H33            5.8194    -0.1783    -0.0482 H       
  34 H34           -3.3770     2.3479     2.2174 H       
  35 H35           -5.5160     3.6561     2.6015 H       
  36 H36           -6.0075     3.3673     0.8475 H       
  37 H37           -5.9637     0.8628     1.2475 H       
  38 H38           -5.4722     1.1516     3.0016 H       
@<TRIPOS>BOND
   1    1    2 1
   2    1    7 2
   3    1    6 1
   4    2    3 1
   5    2    9 1
   6    3    4 2
   7    3   23 1
   8    4    5 1
   9    4   24 1
  10    5    6 am
  11    5   11 1
  12    6   10 2
  13    7    8 1
  14    7   25 1
  15    8    9 2
  16    8   12 1
  17   11   20 1
  18   11   26 1
  19   11   27 1
  20   12   13 1
  21   12   28 1
  22   12   29 1
  23   13   14 1
  24   14   15 ar
  25   14   19 ar
  26   15   16 ar
  27   15   30 1
  28   16   17 ar
  29   16   31 1
  30   17   18 ar
  31   18   19 ar
  32   18   32 1
  33   19   33 1
  34   20   21 1
  35   20   22 1
  36   20   34 1
  37   21   22 1
  38   21   35 1
  39   21   36 1
  40   22   37 1
  41   22   38 1

#	End of record

