#	Name: ASD00100100
#	Creating user name:	WinNT
#	Creation time:	15. 06. 2019 18:30

#	Modifying user name:	WinNT
#	Modification time:	15. 06. 2019 18:30

#	Program:	/corina/corina34_cracker 3.40 0067  02.08.2006

@<TRIPOS>MOLECULE
ASD00100100
  33   34    0    0    0
SMALL
NO_CHARGES


@<TRIPOS>ATOM
   1 C1            -0.0180     1.4737     0.0101 C.2     
   2 C2             0.0021    -0.0041     0.0020 C.ar    
   3 C3             1.2186    -0.6887    -0.0133 C.ar    
   4 C4             1.2302    -2.0681    -0.0208 C.ar    
   5 C5             0.0396    -2.7731    -0.0138 C.ar    
   6 C6            -1.1696    -2.1008     0.0014 C.ar    
   7 C7            -1.1954    -0.7216     0.0154 C.ar    
   8 O8             1.0267     2.0959     0.0035 O.2     
   9 N9            -1.1942     2.1316     0.0193 N.am    
  10 N10           -1.2132     3.5325     0.0270 N.2     
  11 C11           -2.3462     4.1662     0.0358 C.2     
  12 C12           -2.3662     5.6397     0.0439 C.ar    
  13 C13           -1.1640     6.3611     0.0421 C.ar    
  14 C14           -1.1941     7.7456     0.0499 C.ar    
  15 C15           -2.4050     8.4127     0.0593 C.ar    
  16 C16           -3.5943     7.7047     0.0611 C.ar    
  17 C17           -3.5827     6.3254     0.0476 C.ar    
  18 O18            0.0250     5.7049     0.0333 O.3     
  19 C19            1.2082     6.5062     0.0321 C.3     
  20 H20            2.1486    -0.1396    -0.0195 H       
  21 H21            2.1706    -2.5990    -0.0327 H       
  22 H22            0.0543    -3.8529    -0.0205 H       
  23 H23           -2.0953    -2.6570     0.0065 H       
  24 H24           -2.1399    -0.1980     0.0317 H       
  25 H25           -2.0276     1.6353     0.0206 H       
  26 H26           -3.2741     3.6136     0.0372 H       
  27 H27           -0.2703     8.3050     0.0489 H       
  28 H28           -2.4230     9.4926     0.0656 H       
  29 H29           -4.5354     8.2345     0.0684 H       
  30 H30           -4.5129     5.7767     0.0442 H       
  31 H31            1.2169     7.1399    -0.8547 H       
  32 H32            1.2250     7.1308     0.9252 H       
  33 H33            2.0853     5.8590     0.0247 H       
@<TRIPOS>BOND
   1    1    2 1
   2    1    8 2
   3    1    9 am
   4    2    3 ar
   5    2    7 ar
   6    3    4 ar
   7    3   20 1
   8    4    5 ar
   9    4   21 1
  10    5    6 ar
  11    5   22 1
  12    6    7 ar
  13    6   23 1
  14    7   24 1
  15    9   10 1
  16    9   25 1
  17   10   11 2
  18   11   12 1
  19   11   26 1
  20   12   13 ar
  21   12   17 ar
  22   13   14 ar
  23   13   18 1
  24   14   15 ar
  25   14   27 1
  26   15   16 ar
  27   15   28 1
  28   16   17 ar
  29   16   29 1
  30   17   30 1
  31   18   19 1
  32   19   31 1
  33   19   32 1
  34   19   33 1

#	End of record

