#	Name: ASD08070232
#	Creating user name:	WinNT
#	Creation time:	15. 06. 2019 21:14

#	Modifying user name:	WinNT
#	Modification time:	15. 06. 2019 21:14

#	Program:	/corina/corina34_cracker 3.40 0067  02.08.2006

@<TRIPOS>MOLECULE
ASD08070232
  27   28    0    0    0
SMALL
NO_CHARGES


@<TRIPOS>ATOM
   1 C1            -0.0190     1.3952    -0.0162 C.ar    
   2 C2             0.0015    -0.0010    -0.0284 C.ar    
   3 C3            -1.2642    -0.7614    -0.0073 C.2     
   4 N4            -2.4425    -0.1080     0.0239 N.am    
   5 C5            -3.7052    -1.9604    -0.8608 C.ar    
   6 O6            -1.2433    -1.9770    -0.0179 O.2     
   7 C7            -3.6364    -0.8193    -0.0742 C.ar    
   8 C8             1.2253    -0.6758    -0.0611 C.ar    
   9 C9             2.4046     0.0416    -0.0812 C.ar    
  10 C10            2.3760     1.4259    -0.0689 C.ar    
  11 C11            1.1660     2.0997    -0.0365 C.ar    
  12 C12           -4.7748    -0.3854     0.6225 C.ar    
  13 C13           -5.9675    -1.1096     0.5155 C.ar    
  14 C14           -6.0153    -2.2430    -0.2728 C.ar    
  15 C15           -4.8888    -2.6657    -0.9574 C.ar    
  16 Cl16           1.2622    -2.4113    -0.0760 Cl      
  17 C17           -4.7162     0.7904     1.4379 C.1     
  18 N18           -4.6697     1.7231     2.0847 N.1     
  19 F19           -7.0695    -0.7015     1.1820 F       
  20 Cl20           3.8632     2.3212    -0.0943 Cl      
  21 H21           -0.9614     1.9223     0.0046 H       
  22 H22           -2.4593     0.8577     0.1145 H       
  23 H23           -2.8327    -2.2952    -1.4021 H       
  24 H24            3.3511    -0.4778    -0.1061 H       
  25 H25            1.1509     3.1795    -0.0267 H       
  26 H26           -6.9356    -2.8021    -0.3551 H       
  27 H27           -4.9358    -3.5530    -1.5714 H       
@<TRIPOS>BOND
   1    1    2 ar
   2    1   11 ar
   3    1   21 1
   4    2    3 1
   5    2    8 ar
   6    3    4 am
   7    3    6 2
   8    4    7 1
   9    4   22 1
  10    5    7 ar
  11    5   15 ar
  12    5   23 1
  13    7   12 ar
  14    8    9 ar
  15    8   16 1
  16    9   10 ar
  17    9   24 1
  18   10   11 ar
  19   10   20 1
  20   11   25 1
  21   12   13 ar
  22   12   17 1
  23   13   14 ar
  24   13   19 1
  25   14   15 ar
  26   14   26 1
  27   15   27 1
  28   17   18 3

#	End of record

