#	Name: ASD04590328
#	Creating user name:	WinNT
#	Creation time:	15. 06. 2019 20:50

#	Modifying user name:	WinNT
#	Modification time:	15. 06. 2019 20:50

#	Program:	/corina/corina34_cracker 3.40 0067  02.08.2006

@<TRIPOS>MOLECULE
ASD04590328
  36   39    0    0    0
SMALL
NO_CHARGES


@<TRIPOS>ATOM
   1 C1            -0.0167     1.3834     0.0096 C.ar    
   2 C2             0.0021    -0.0041     0.0020 C.ar    
   3 C3             1.1863    -0.6848    -0.0129 C.ar    
   4 C4             2.3948     0.0191    -0.0207 C.ar    
   5 C5             2.3756     1.4250    -0.0129 C.ar    
   6 C6             1.1624     2.0987     0.0022 C.ar    
   7 N7             3.6952    -0.3636    -0.0351 N.2     
   8 C8             4.4665     0.6967    -0.0368 C.2     
   9 N9             3.6970     1.8290    -0.0233 N.pl3   
  10 C10            5.9437     0.6731    -0.0510 C.2     
  11 C11            6.7566    -0.4840    -0.0654 C.2     
  12 C12            8.0504    -0.0800    -0.0762 C.2     
  13 N13            8.0626     1.2789    -0.0690 N.pl3   
  14 N14            6.7358     1.7273    -0.0582 N.2     
  15 N15            6.3043    -1.8134    -0.0677 N.am    
  16 C16            7.1923    -2.8272    -0.0822 C.2     
  17 C17            6.7169    -4.2247    -0.0846 C.ar    
  18 O18            8.3850    -2.5907    -0.0933 O.2     
  19 C19            6.0285    -6.1881    -1.2890 C.ar    
  20 C20            5.8244    -6.8487    -0.0890 C.ar    
  21 C21            6.0587    -6.2025     1.1132 C.ar    
  22 C22            6.5033    -4.8958     1.1230 C.ar    
  23 Cl23           6.7969    -4.0879     2.6312 Cl      
  24 C24            6.4728    -4.8813    -1.2943 C.ar    
  25 Cl25           6.7274    -4.0550    -2.7996 Cl      
  26 Cl26           5.2654    -8.4922    -0.0919 Cl      
  27 H27           -0.9614     1.9069     0.0169 H       
  28 H28           -0.9290    -0.5513     0.0083 H       
  29 H29            1.1893    -1.7648    -0.0184 H       
  30 H30            1.1417     3.1785     0.0079 H       
  31 H31            4.0192     2.7439    -0.0215 H       
  32 H32            8.9175    -0.7237    -0.0884 H       
  33 H33            8.8532     1.8409    -0.0734 H       
  34 H34            5.3529    -2.0021    -0.0588 H       
  35 H35            5.8441    -6.6982    -2.2229 H       
  36 H36            5.8975    -6.7237     2.0453 H       
@<TRIPOS>BOND
   1    1    2 ar
   2    1    6 ar
   3    1   27 1
   4    2    3 ar
   5    2   28 1
   6    3    4 ar
   7    3   29 1
   8    4    5 ar
   9    4    7 1
  10    5    6 ar
  11    5    9 1
  12    6   30 1
  13    7    8 2
  14    8    9 1
  15    8   10 1
  16    9   31 1
  17   10   11 1
  18   10   14 2
  19   11   12 2
  20   11   15 1
  21   12   13 1
  22   12   32 1
  23   13   14 1
  24   13   33 1
  25   15   16 am
  26   15   34 1
  27   16   17 1
  28   16   18 2
  29   17   22 ar
  30   17   24 ar
  31   19   20 ar
  32   19   24 ar
  33   19   35 1
  34   20   21 ar
  35   20   26 1
  36   21   22 ar
  37   21   36 1
  38   22   23 1
  39   24   25 1

#	End of record

