#	Name: ASD01915494
#	Creating user name:	WinNT
#	Creation time:	15. 06. 2019 20:05

#	Modifying user name:	WinNT
#	Modification time:	15. 06. 2019 20:05

#	Program:	/corina/corina34_cracker 3.40 0067  02.08.2006

@<TRIPOS>MOLECULE
ASD01915494
  46   49    0    0    0
SMALL
NO_CHARGES


@<TRIPOS>ATOM
   1 C1            -0.0362     1.2854    -0.1156 C.ar    
   2 C2            -0.0034    -0.0969    -0.1234 C.ar    
   3 C3             1.2084    -0.7602    -0.1224 C.ar    
   4 C4             2.3930    -0.0383    -0.1135 C.ar    
   5 C5             2.3574     1.3486    -0.1056 C.ar    
   6 C6             1.1431     2.0072    -0.1066 C.ar    
   7 O7             3.5864    -0.6885    -0.1120 O.3     
   8 C8             4.7652     0.1191    -0.1026 C.3     
   9 C9             5.9827    -0.7691    -0.1023 C.ar    
  10 C10            6.5560    -1.1773    -1.2916 C.ar    
  11 N11            7.6152    -1.9569    -1.2930 N.ar    
  12 C12            8.1828    -2.3887    -0.1735 C.ar    
  13 C13            7.6702    -2.0100     1.0467 C.ar    
  14 C14            6.5506    -1.1864     1.0898 C.ar    
  15 C15            9.3734    -3.3028    -0.3060 C.3     
  16 C16           10.1973    -3.3121     0.9804 C.3     
  17 N17            9.2729    -3.4954     2.1115 N.am    
  18 C18            8.2866    -2.4365     2.3537 C.3     
  19 C19            9.3301    -4.5921     2.8927 C.2     
  20 C20            8.4792    -4.6865     4.0966 C.ar    
  21 O21           10.0820    -5.5036     2.6068 O.2     
  22 C22            7.9518    -5.9193     4.4870 C.ar    
  23 C23            7.1588    -6.0019     5.6114 C.ar    
  24 C24            6.8845    -4.8638     6.3544 C.ar    
  25 C25            7.4052    -3.6373     5.9711 C.ar    
  26 C26            8.2041    -3.5444     4.8516 C.ar    
  27 F27            6.1067    -4.9503     7.4556 F       
  28 H28           -0.9845     1.8022    -0.1209 H       
  29 H29           -0.9259    -0.6584    -0.1300 H       
  30 H30            1.2335    -1.8399    -0.1282 H       
  31 H31            3.2783     1.9128    -0.0983 H       
  32 H32            1.1148     3.0868    -0.1005 H       
  33 H33            4.7783     0.7532    -0.9891 H       
  34 H34            4.7708     0.7435     0.7908 H       
  35 H35            6.1297    -0.8531    -2.2295 H       
  36 H36            6.1269    -0.8840     2.0360 H       
  37 H37            9.0269    -4.3144    -0.5172 H       
  38 H38            9.9989    -2.9595    -1.1300 H       
  39 H39           10.9136    -4.1332     0.9533 H       
  40 H40           10.7258    -2.3646     1.0864 H       
  41 H41            8.7783    -1.5822     2.8189 H       
  42 H42            7.5073    -2.8115     3.0172 H       
  43 H43            8.1645    -6.8063     3.9087 H       
  44 H44            6.7501    -6.9547     5.9139 H       
  45 H45            7.1882    -2.7538     6.5532 H       
  46 H46            8.6095    -2.5886     4.5541 H       
@<TRIPOS>BOND
   1    1    2 ar
   2    1    6 ar
   3    1   28 1
   4    2    3 ar
   5    2   29 1
   6    3    4 ar
   7    3   30 1
   8    4    5 ar
   9    4    7 1
  10    5    6 ar
  11    5   31 1
  12    6   32 1
  13    7    8 1
  14    8    9 1
  15    8   33 1
  16    8   34 1
  17    9   10 ar
  18    9   14 ar
  19   10   11 ar
  20   10   35 1
  21   11   12 ar
  22   12   13 ar
  23   12   15 1
  24   13   14 ar
  25   13   18 1
  26   14   36 1
  27   15   16 1
  28   15   37 1
  29   15   38 1
  30   16   17 1
  31   16   39 1
  32   16   40 1
  33   17   18 1
  34   17   19 am
  35   18   41 1
  36   18   42 1
  37   19   20 1
  38   19   21 2
  39   20   22 ar
  40   20   26 ar
  41   22   23 ar
  42   22   43 1
  43   23   24 ar
  44   23   44 1
  45   24   25 ar
  46   24   27 1
  47   25   26 ar
  48   25   45 1
  49   26   46 1

#	End of record

