#	Name: ASD09690002
#	Creating user name:	WinNT
#	Creation time:	15. 06. 2019 21:22

#	Modifying user name:	WinNT
#	Modification time:	15. 06. 2019 21:22

#	Program:	/corina/corina34_cracker 3.40 0067  02.08.2006

@<TRIPOS>MOLECULE
ASD09690002
  53   55    0    0    0
SMALL
NO_CHARGES


@<TRIPOS>ATOM
   1 N1            -0.0178     1.4648     0.0101 N.3     
   2 C2             0.0021    -0.0041     0.0020 C.3     
   3 N3             0.7088    -0.4677     1.1864 N.am    
   4 C4             0.1460    -1.1421     2.2122 C.2     
   5 O5             0.7832    -1.4091     3.2089 O.2     
   6 C6            -1.2812    -1.5476     2.0824 C.3     
   7 C7            -1.9796    -0.4391     1.2433 C.3     
   8 N8            -1.3860    -0.4955    -0.0805 N.3     
   9 N9            -3.3853    -0.8273     1.3957 N.3     
  10 C10           -3.4737    -1.2031     2.8374 C.3     
  11 N11           -2.1087    -1.5948     3.2836 N.3     
  12 C12           -4.2784     0.2980     1.0892 C.3     
  13 C13           -5.7603    -0.1543     1.1306 C.3     
  14 C14           -6.4968     1.1745     1.4281 C.3     
  15 C15           -5.4108     2.0789     2.0424 C.3     
  16 O16           -4.2038     1.3025     2.1236 O.3     
  17 C17           -5.8369     2.5260     3.4422 C.3     
  18 O18           -4.8812     3.4554     3.9569 O.3     
  19 P19           -5.0128     4.1337     5.4111 P.3     
  20 O20           -6.3276     4.8034     5.5259 O.2     
  21 O21           -3.8392     5.2186     5.6055 O.3     
  22 P22           -3.4229     6.2139     6.8005 P.3     
  23 O23           -3.4650     5.4842     8.0875 O.2     
  24 O24           -1.9320     6.7654     6.5449 O.3     
  25 P25           -0.8061     7.4242     7.4885 P.3     
  26 O26           -0.7004     6.6494     8.7451 O.2     
  27 O27            0.6115     7.4055     6.7256 O.3     
  28 O28           -1.2129     8.9445     7.8280 O.3     
  29 O29           -4.4515     7.4514     6.8513 O.3     
  30 S30           -4.8481     2.6391     6.9056 S.3     
  31 O31           -7.0009     1.7482     0.2202 O.3     
  32 H32            0.9191     1.8392     0.0032 H       
  33 H33           -0.5563     1.8234    -0.7642 H       
  34 H34            0.5433    -0.3407    -0.8822 H       
  35 H35            1.6583    -0.2778     1.2435 H       
  36 H36           -1.3460    -2.5009     1.5579 H       
  37 H37           -1.7990     0.5380     1.6912 H       
  38 H38           -1.9228     0.0466    -0.7409 H       
  39 H39           -3.8233    -0.3513     3.4209 H       
  40 H40           -4.1580    -2.0427     2.9596 H       
  41 H41           -2.1113    -2.5206     3.6848 H       
  42 H42           -4.0348     0.7261     0.1168 H       
  43 H43           -6.0692    -0.5633     0.1687 H       
  44 H44           -5.9242    -0.8772     1.9298 H       
  45 H45           -7.3054     1.0114     2.1405 H       
  46 H46           -5.2497     2.9492     1.4062 H       
  47 H47           -6.8155     3.0032     3.3891 H       
  48 H48           -5.8909     1.6586     4.1000 H       
  49 H49            1.3381     7.7880     7.2364 H       
  50 H50           -1.3003     9.5115     7.0495 H       
  51 H51           -4.4766     7.9756     6.0391 H       
  52 H52           -3.6257     2.1235     6.6844 H       
  53 H53           -7.6458     1.1933    -0.2395 H       
@<TRIPOS>BOND
   1    1    2 1
   2    1   32 1
   3    1   33 1
   4    2    3 1
   5    2    8 1
   6    2   34 1
   7    3    4 am
   8    3   35 1
   9    4    5 2
  10    4    6 1
  11    6    7 1
  12    6   11 1
  13    6   36 1
  14    7    8 1
  15    7    9 1
  16    7   37 1
  17    8   38 1
  18    9   10 1
  19    9   12 1
  20   10   11 1
  21   10   39 1
  22   10   40 1
  23   11   41 1
  24   12   13 1
  25   12   16 1
  26   12   42 1
  27   13   14 1
  28   13   43 1
  29   13   44 1
  30   14   15 1
  31   14   31 1
  32   14   45 1
  33   15   16 1
  34   15   17 1
  35   15   46 1
  36   17   18 1
  37   17   47 1
  38   17   48 1
  39   18   19 1
  40   19   20 2
  41   19   21 1
  42   19   30 1
  43   21   22 1
  44   22   23 2
  45   22   24 1
  46   22   29 1
  47   24   25 1
  48   25   26 2
  49   25   27 1
  50   25   28 1
  51   27   49 1
  52   28   50 1
  53   29   51 1
  54   30   52 1
  55   31   53 1

#	End of record

