#	Name: ASD00122027
#	Creating user name:	WinNT
#	Creation time:	15. 06. 2019 18:31

#	Modifying user name:	WinNT
#	Modification time:	15. 06. 2019 18:31

#	Program:	/corina/corina34_cracker 3.40 0067  02.08.2006

@<TRIPOS>MOLECULE
ASD00122027
  34   34    0    0    0
SMALL
NO_CHARGES


@<TRIPOS>ATOM
   1 C1            -0.0167     1.3794     0.0096 C.ar    
   2 C2             0.0021    -0.0041     0.0020 C.ar    
   3 C3             1.2061    -0.6856    -0.0127 C.ar    
   4 C4             2.3966     0.0113    -0.0198 C.ar    
   5 C5             2.3848     1.4070    -0.0127 C.ar    
   6 C6             1.1667     2.0884     0.0021 C.ar    
   7 C7             3.6569     2.1603    -0.0198 C.2     
   8 N8             3.6421     3.5079    -0.0128 N.am    
   9 O9             4.7162     1.5642    -0.0318 O.2     
  10 C10            4.9026     4.2544    -0.0199 C.3     
  11 C11            5.3932     4.4134    -1.4603 C.3     
  12 C12            4.6806     5.6361     0.5987 C.3     
  13 C13            4.3106     5.4804     2.0751 C.3     
  14 C14            5.7339     3.0381    -2.0377 C.3     
  15 C15           -1.2946    -0.7719     0.0103 C.3     
  16 F16           -1.7084    -1.0025    -1.3061 F       
  17 F17           -1.1076    -1.9960     0.6614 F       
  18 F18           -2.2715    -0.0303     0.6831 F       
  19 H19           -0.9599     1.9054     0.0169 H       
  20 H20            1.2138    -1.7656    -0.0182 H       
  21 H21            3.3358    -0.5219    -0.0305 H       
  22 H22            1.1507     3.1682     0.0077 H       
  23 H23            2.7968     3.9836    -0.0032 H       
  24 H24            5.6492     3.7123     0.5605 H       
  25 H25            4.6106     4.8761    -2.0617 H       
  26 H26            6.2824     5.0436    -1.4739 H       
  27 H27            5.5947     6.2236     0.5132 H       
  28 H28            3.8719     6.1438     0.0730 H       
  29 H29            4.1524     6.4648     2.5157 H       
  30 H30            3.3964     4.8929     2.1606 H       
  31 H31            5.1193     4.9727     2.6007 H       
  32 H32            6.0834     3.1513    -3.0640 H       
  33 H33            6.5165     2.5753    -1.4364 H       
  34 H34            4.8447     2.4078    -2.0242 H       
@<TRIPOS>BOND
   1    1    2 ar
   2    1    6 ar
   3    1   19 1
   4    2    3 ar
   5    2   15 1
   6    3    4 ar
   7    3   20 1
   8    4    5 ar
   9    4   21 1
  10    5    6 ar
  11    5    7 1
  12    6   22 1
  13    7    8 am
  14    7    9 2
  15    8   10 1
  16    8   23 1
  17   10   11 1
  18   10   12 1
  19   10   24 1
  20   11   14 1
  21   11   25 1
  22   11   26 1
  23   12   13 1
  24   12   27 1
  25   12   28 1
  26   13   29 1
  27   13   30 1
  28   13   31 1
  29   14   32 1
  30   14   33 1
  31   14   34 1
  32   15   16 1
  33   15   17 1
  34   15   18 1

#	End of record

