#	Name: ASD00170737
#	Creating user name:	WinNT
#	Creation time:	15. 06. 2019 18:32

#	Modifying user name:	WinNT
#	Modification time:	15. 06. 2019 18:32

#	Program:	/corina/corina34_cracker 3.40 0067  02.08.2006

@<TRIPOS>MOLECULE
ASD00170737
  97  103    0    0    0
SMALL
NO_CHARGES


@<TRIPOS>ATOM
   1 C1             1.7017     0.5738    -8.9760 C.3     
   2 C2             1.9753     1.5729    -7.8300 C.3     
   3 C3             0.5839     1.8162    -7.2038 C.3     
   4 C4            -0.3658     0.9353    -8.0456 C.3     
   5 O5             0.4803    -0.0973    -8.5968 O.3     
   6 O6             0.5709     1.4016    -5.8364 O.3     
   7 O7             2.8641     1.0007    -6.8684 O.3     
   8 C8             2.8487    -0.4323    -9.0908 C.3     
   9 O9             2.6336    -1.2724   -10.2265 O.3     
  10 N10           -1.4021     0.3452    -7.1947 N.pl3   
  11 C11           -2.7356     0.6897    -7.3704 C.ar    
  12 C12           -3.6477     0.3950    -6.3659 C.ar    
  13 C13           -3.1966    -0.2795    -5.1037 C.3     
  14 N14           -1.8672    -0.8556    -5.2594 N.2     
  15 C15           -1.0673    -0.5587    -6.2186 C.2     
  16 N16           -3.1559     1.2933    -8.4766 N.ar    
  17 C17           -4.4282     1.6089    -8.6243 C.ar    
  18 N18           -5.3257     1.3439    -7.6969 N.ar    
  19 C19           -4.9803     0.7413    -6.5590 C.ar    
  20 N20           -5.9309     0.4655    -5.5876 N.pl3   
  21 C21           -7.2853     0.7116    -5.8437 C.ar    
  22 C22           -7.7906     0.5486    -7.1268 C.ar    
  23 C23           -9.1265     0.7916    -7.3785 C.ar    
  24 C24           -9.9636     1.1984    -6.3500 C.ar    
  25 C25           -9.4597     1.3614    -5.0679 C.ar    
  26 C26           -8.1253     1.1133    -4.8134 C.ar    
  27 O27          -11.2789     1.4379    -6.5987 O.3     
  28 C28          -12.0830     1.8539    -5.4931 C.3     
  29 C29          -13.5223     2.0736    -5.9633 C.3     
  30 C30          -14.3832     2.5189    -4.7795 C.3     
  31 C31          -15.8225     2.7386    -5.2498 C.3     
  32 C32          -16.6834     3.1839    -4.0660 C.3     
  33 N33          -20.3655     4.0598    -3.8039 N.3     
  34 C34          -21.2689     4.2564    -2.6611 C.3     
  35 C35          -22.5920     4.8488    -3.1566 C.3     
  36 C36          -23.0796     4.0082    -4.3266 C.2     
  37 C37          -22.2822     3.1601    -4.9870 C.2     
  38 C38          -20.8200     2.9451    -4.6483 C.3     
  39 C39          -24.4310     4.0242    -4.8531 C.2     
  40 C40          -24.6078     3.1695    -5.9126 C.2     
  41 S41          -23.1583     2.3519    -6.2739 S.3     
  42 N42          -25.7969     2.9963    -6.5914 N.pl3   
  43 C43          -25.4974     4.8650    -4.3097 C.2     
  44 C44          -25.6475     6.2610    -4.7738 C.ar    
  45 O45          -26.2617     4.4154    -3.4750 O.2     
  46 C46          -26.5916     7.0994    -4.1789 C.ar    
  47 C47          -26.7269     8.4015    -4.6166 C.ar    
  48 C48          -25.9274     8.8760    -5.6445 C.ar    
  49 C49          -24.9894     8.0477    -6.2382 C.ar    
  50 C50          -24.8412     6.7471    -5.8050 C.ar    
  51 Cl51         -27.9008     9.4461    -3.8788 Cl      
  52 Cl52         -26.1027    10.5147    -6.1902 Cl      
  53 C53          -18.1227     3.4036    -4.5362 C.3     
  54 C54          -18.9836     3.8489    -3.3524 C.3     
  55 H55            1.5680     1.1048    -9.9185 H       
  56 H56            2.3848     2.5031    -8.2239 H       
  57 H57            0.3066     2.8671    -7.2860 H       
  58 H58           -0.8185     1.5218    -8.8450 H       
  59 H59            1.1940     1.8817    -5.2739 H       
  60 H60            3.7338     0.7719    -7.2239 H       
  61 H61            3.7910     0.1028    -9.2079 H       
  62 H62            2.8875    -1.0433    -8.1890 H       
  63 H63            3.3238    -1.9361   -10.3612 H       
  64 H64           -3.1766     0.4517    -4.2955 H       
  65 H65           -3.9015    -1.0712    -4.8502 H       
  66 H66           -0.0960    -1.0296    -6.2524 H       
  67 H67           -4.7437     2.0998    -9.5331 H       
  68 H68           -5.6575     0.1020    -4.7309 H       
  69 H69           -7.1388     0.2323    -7.9278 H       
  70 H70           -9.5195     0.6653    -8.3765 H       
  71 H71          -10.1121     1.6785    -4.2678 H       
  72 H72           -7.7331     1.2403    -3.8151 H       
  73 H73          -12.0663     1.0840    -4.7217 H       
  74 H74          -11.6877     2.7846    -5.0861 H       
  75 H75          -13.5390     2.8435    -6.7347 H       
  76 H76          -13.9176     1.1429    -6.3703 H       
  77 H77          -14.3665     1.7490    -4.0081 H       
  78 H78          -13.9879     3.4496    -4.3726 H       
  79 H79          -15.8392     3.5085    -6.0212 H       
  80 H80          -16.2178     1.8079    -5.6567 H       
  81 H81          -16.6667     2.4140    -3.2946 H       
  82 H82          -16.2881     4.1146    -3.6590 H       
  83 H83          -21.4579     3.2979    -2.1777 H       
  84 H84          -20.8090     4.9399    -1.9473 H       
  85 H85          -23.3292     4.8249    -2.3541 H       
  86 H86          -22.4355     5.8771    -3.4825 H       
  87 H87          -20.2320     2.9177    -5.5657 H       
  88 H88          -20.7038     2.0057    -4.1079 H       
  89 H89          -26.5632     3.5509    -6.3766 H       
  90 H90          -25.8663     2.3201    -7.2834 H       
  91 H91          -27.2151     6.7300    -3.3782 H       
  92 H92          -24.3694     8.4229    -7.0390 H       
  93 H93          -24.1094     6.1025    -6.2690 H       
  94 H94          -18.1394     4.1735    -5.3076 H       
  95 H95          -18.5180     2.4729    -4.9432 H       
  96 H96          -18.5883     4.7796    -2.9454 H       
  97 H97          -18.9669     3.0790    -2.5810 H       
@<TRIPOS>BOND
   1    1    2 1
   2    1    8 1
   3    1    5 1
   4    1   55 1
   5    2    3 1
   6    2    7 1
   7    2   56 1
   8    3    6 1
   9    3    4 1
  10    3   57 1
  11    4    5 1
  12    4   10 1
  13    4   58 1
  14    6   59 1
  15    7   60 1
  16    8    9 1
  17    8   61 1
  18    8   62 1
  19    9   63 1
  20   10   11 1
  21   10   15 1
  22   11   12 ar
  23   11   16 ar
  24   12   13 1
  25   12   19 ar
  26   13   14 1
  27   13   64 1
  28   13   65 1
  29   14   15 2
  30   15   66 1
  31   16   17 ar
  32   17   18 ar
  33   17   67 1
  34   18   19 ar
  35   19   20 1
  36   20   21 1
  37   20   68 1
  38   21   22 ar
  39   21   26 ar
  40   22   23 ar
  41   22   69 1
  42   23   24 ar
  43   23   70 1
  44   24   25 ar
  45   24   27 1
  46   25   26 ar
  47   25   71 1
  48   26   72 1
  49   27   28 1
  50   28   29 1
  51   28   73 1
  52   28   74 1
  53   29   30 1
  54   29   75 1
  55   29   76 1
  56   30   31 1
  57   30   77 1
  58   30   78 1
  59   31   32 1
  60   31   79 1
  61   31   80 1
  62   32   53 1
  63   32   81 1
  64   32   82 1
  65   33   34 1
  66   33   38 1
  67   33   54 1
  68   34   35 1
  69   34   83 1
  70   34   84 1
  71   35   36 1
  72   35   85 1
  73   35   86 1
  74   36   37 2
  75   36   39 1
  76   37   38 1
  77   37   41 1
  78   38   87 1
  79   38   88 1
  80   39   40 2
  81   39   43 1
  82   40   41 1
  83   40   42 1
  84   42   89 1
  85   42   90 1
  86   43   44 1
  87   43   45 2
  88   44   46 ar
  89   44   50 ar
  90   46   47 ar
  91   46   91 1
  92   47   48 ar
  93   47   51 1
  94   48   49 ar
  95   48   52 1
  96   49   50 ar
  97   49   92 1
  98   50   93 1
  99   53   54 1
 100   53   94 1
 101   53   95 1
 102   54   96 1
 103   54   97 1

#	End of record

