#	Name: ASD01813715
#	Creating user name:	WinNT
#	Creation time:	15. 06. 2019 19:31

#	Modifying user name:	WinNT
#	Modification time:	15. 06. 2019 19:31

#	Program:	/corina/corina34_cracker 3.40 0067  02.08.2006

@<TRIPOS>MOLECULE
ASD01813715
  39   42    0    0    0
SMALL
NO_CHARGES


@<TRIPOS>ATOM
   1 C1            -0.0168     1.3835    -0.0503 C.ar    
   2 C2             0.0020    -0.0038    -0.0573 C.ar    
   3 C3             1.1976    -0.6920    -0.0527 C.ar    
   4 C4             2.4035     0.0084    -0.0408 C.ar    
   5 C5             2.3796     1.4130    -0.0337 C.ar    
   6 C6             1.1627     2.0947    -0.0385 C.ar    
   7 N7             3.6056    -0.6668    -0.0350 N.pl3   
   8 C8             4.7891    -0.0410    -0.0223 C.2     
   9 C9             4.8932     1.3356    -0.0139 C.2     
  10 C10            3.6619     2.1417    -0.0212 C.2     
  11 O11            3.7002     3.3596    -0.0146 O.2     
  12 C12            6.2115     1.9851     0.0010 C.2     
  13 O13            6.3001     3.3302     0.0091 O.3     
  14 O14            7.2220     1.3094     0.0062 O.2     
  15 C15            3.5871    -2.1316    -0.0427 C.3     
  16 C16            3.4445    -2.6248    -1.4595 C.ar    
  17 N17            2.2435    -2.7321    -2.0020 N.ar    
  18 C18            2.1136    -3.1631    -3.2425 C.ar    
  19 C19            3.2466    -3.5055    -3.9813 C.ar    
  20 N20            4.4520    -3.3955    -3.4305 N.ar    
  21 C21            4.5714    -2.9582    -2.1901 C.ar    
  22 F22            1.2003    -2.0429    -0.0592 F       
  23 C23            3.1071    -3.9908    -5.3753 C.2     
  24 C24            4.1861    -4.3905    -6.2862 C.2     
  25 C25            3.5875    -4.7560    -7.4319 C.2     
  26 O26            2.2602    -4.6145    -7.2960 O.3     
  27 C27            1.9532    -4.1631    -6.0722 C.2     
  28 H28           -0.9607     1.9082    -0.0586 H       
  29 H29           -0.9292    -0.5507    -0.0661 H       
  30 H30            1.1454     3.1746    -0.0334 H       
  31 H31            5.6925    -0.6328    -0.0180 H       
  32 H32            7.1887     3.7116     0.0189 H       
  33 H33            4.5175    -2.5090     0.3815 H       
  34 H34            2.7459    -2.4875     0.5522 H       
  35 H35            1.1322    -3.2509    -3.6849 H       
  36 H36            5.5500    -2.8686    -1.7421 H       
  37 H37            5.2458    -4.3908    -6.0778 H       
  38 H38            4.0931    -5.1072    -8.3194 H       
  39 H39            0.9576    -3.9636    -5.7043 H       
@<TRIPOS>BOND
   1    1    2 ar
   2    1    6 ar
   3    1   28 1
   4    2    3 ar
   5    2   29 1
   6    3   22 1
   7    3    4 ar
   8    4    5 ar
   9    4    7 1
  10    5    6 ar
  11    5   10 1
  12    6   30 1
  13    7    8 1
  14    7   15 1
  15    8    9 2
  16    8   31 1
  17    9   10 1
  18    9   12 1
  19   10   11 2
  20   12   13 1
  21   12   14 2
  22   13   32 1
  23   15   16 1
  24   15   33 1
  25   15   34 1
  26   16   17 ar
  27   16   21 ar
  28   17   18 ar
  29   18   19 ar
  30   18   35 1
  31   19   20 ar
  32   19   23 1
  33   20   21 ar
  34   21   36 1
  35   23   24 1
  36   23   27 2
  37   24   25 2
  38   24   37 1
  39   25   26 1
  40   25   38 1
  41   26   27 1
  42   27   39 1

#	End of record

