#	Name: ASD03082262
#	Creating user name:	WinNT
#	Creation time:	15. 06. 2019 20:27

#	Modifying user name:	WinNT
#	Modification time:	15. 06. 2019 20:27

#	Program:	/corina/corina34_cracker 3.40 0067  02.08.2006

@<TRIPOS>MOLECULE
ASD03082262
  43   45    0    0    0
SMALL
NO_CHARGES


@<TRIPOS>ATOM
   1 N1             0.4426     1.5939     0.4090 N.pl3   
   2 N2             0.0922     0.2401     0.2807 N.2     
   3 C3             1.2068    -0.4267     0.0852 C.2     
   4 N4             2.2304     0.4280     0.0838 N.2     
   5 C5             1.7866     1.6536     0.2781 C.2     
   6 N6             1.3042    -1.8083    -0.0925 N.pl3   
   7 C7             2.5516    -2.3980    -0.3133 C.ar    
   8 C8             3.6985    -1.8148     0.2085 C.ar    
   9 C9             4.9336    -2.4030    -0.0124 C.ar    
  10 C10            5.0216    -3.5731    -0.7542 C.ar    
  11 C11            3.8793    -4.1522    -1.2729 C.ar    
  12 C12            2.6453    -3.5719    -1.0506 C.ar    
  13 O13            6.0581    -1.8345     0.4966 O.3     
  14 C14            2.6138     2.8793     0.3414 C.ar    
  15 C15           -0.4684     2.7190     0.6337 C.3     
  16 C16            2.0580     4.1360     0.0799 C.ar    
  17 C17            2.8657     5.2527     0.1506 C.ar    
  18 N18            4.1436     5.1458     0.4590 N.ar    
  19 C19            4.7074     3.9804     0.7128 C.ar    
  20 C20            3.9723     2.8136     0.6703 C.ar    
  21 C21            6.1728     3.9233     1.0595 C.3     
  22 C22           -1.0831     3.1515    -0.6989 C.3     
  23 O23           -1.5070     2.3193     1.5300 O.3     
  24 C24            7.2969    -2.4951     0.2297 C.3     
  25 F25            7.5017    -2.5612    -1.1526 F       
  26 F26            8.3435    -1.7807     0.8226 F       
  27 F27            7.2581    -3.7900     0.7579 F       
  28 H28            0.5060    -2.3586    -0.0626 H       
  29 H29            3.6282    -0.9044     0.7851 H       
  30 H30            5.9843    -4.0311    -0.9265 H       
  31 H31            3.9508    -5.0623    -1.8499 H       
  32 H32            1.7536    -4.0288    -1.4536 H       
  33 H33            0.0841     3.5530     1.0666 H       
  34 H34            1.0125     4.2308    -0.1739 H       
  35 H35            2.4457     6.2274    -0.0496 H       
  36 H36            4.4403     1.8630     0.8795 H       
  37 H37            6.2946     4.0144     2.1389 H       
  38 H38            6.5884     2.9725     0.7259 H       
  39 H39            6.6954     4.7419     0.5646 H       
  40 H40           -1.6356     2.3176    -1.1318 H       
  41 H41           -1.7609     3.9886    -0.5317 H       
  42 H42           -0.2909     3.4564    -1.3826 H       
  43 H43           -2.0408     1.5797     1.2087 H       
@<TRIPOS>BOND
   1    1    2 1
   2    1    5 1
   3    1   15 1
   4    2    3 2
   5    3    4 1
   6    3    6 1
   7    4    5 2
   8    5   14 1
   9    6    7 1
  10    6   28 1
  11    7    8 ar
  12    7   12 ar
  13    8    9 ar
  14    8   29 1
  15    9   10 ar
  16    9   13 1
  17   10   11 ar
  18   10   30 1
  19   11   12 ar
  20   11   31 1
  21   12   32 1
  22   13   24 1
  23   14   16 ar
  24   14   20 ar
  25   15   22 1
  26   15   23 1
  27   15   33 1
  28   16   17 ar
  29   16   34 1
  30   17   18 ar
  31   17   35 1
  32   18   19 ar
  33   19   20 ar
  34   19   21 1
  35   20   36 1
  36   21   37 1
  37   21   38 1
  38   21   39 1
  39   22   40 1
  40   22   41 1
  41   22   42 1
  42   23   43 1
  43   24   25 1
  44   24   26 1
  45   24   27 1

#	End of record

