#	Name: ASD01820044
#	Creating user name:	WinNT
#	Creation time:	15. 06. 2019 19:36

#	Modifying user name:	WinNT
#	Modification time:	15. 06. 2019 19:36

#	Program:	/corina/corina34_cracker 3.40 0067  02.08.2006

@<TRIPOS>MOLECULE
ASD01820044
  90   93    0    0    0
SMALL
NO_CHARGES


@<TRIPOS>ATOM
   1 N1             0.7896     0.6811    -1.4172 N.am    
   2 C2             0.7541    -0.7676    -1.2015 C.3     
   3 C3            -0.0539    -1.0756     0.0607 C.3     
   4 C4            -0.0909    -2.5885     0.2859 C.3     
   5 N5            -0.3488    -2.8661     1.7052 N.4     
   6 C6            -0.5646    -4.3073     1.8909 C.3     
   7 C7            -0.8331    -4.5964     3.3692 C.3     
   8 C8            -1.0578    -6.0974     3.5626 C.3     
   9 C9            -1.3264    -6.3865     5.0409 C.3     
  10 C10           -1.5511    -7.8875     5.2343 C.3     
  11 C11           -1.8197    -8.1766     6.7126 C.3     
  12 C12            0.8056    -2.4366     2.5058 C.3     
  13 C13           -1.5453    -2.1321     2.1382 C.3     
  14 N14           -2.0354    -9.6178     6.8983 N.4     
  15 C15           -2.2933    -9.8954     8.3176 C.3     
  16 C16           -2.5180   -11.3964     8.5110 C.3     
  17 C17           -2.7866   -11.6855     9.9893 C.3     
  18 N18           -3.0017   -13.1228    10.1745 N.am    
  19 C19           -3.1898   -10.0473     6.0977 C.3     
  20 C20           -0.8389   -10.3519     6.4653 C.3     
  21 C21           -2.0265   -14.0103    10.4407 C.2     
  22 C22           -2.6317   -15.3537    10.5590 C.ar    
  23 C23           -4.0131   -15.1747    10.3434 C.ar    
  24 C24           -4.2013   -13.7278    10.1065 C.2     
  25 C25           -2.1331   -16.6205    10.8172 C.ar    
  26 C26           -2.9973   -17.7033    10.8616 C.ar    
  27 C27           -4.3519   -17.5278    10.6496 C.ar    
  28 C28           -4.8650   -16.2665    10.3907 C.ar    
  29 O29           -5.2606   -13.1783     9.8814 O.2     
  30 O30           -0.8463   -13.7513    10.5627 O.2     
  31 C31            1.7328     1.5017    -0.9206 C.2     
  32 C32            1.4303     2.8827    -1.3522 C.ar    
  33 C33            0.2553     2.7963    -2.1259 C.ar    
  34 C34           -0.1136     1.3650    -2.1426 C.2     
  35 C35            2.0341     4.1136    -1.1513 C.ar    
  36 C36            1.4774     5.2519    -1.7132 C.ar    
  37 C37            0.3251     5.1672    -2.4719 C.ar    
  38 C38           -0.2898     3.9427    -2.6814 C.ar    
  39 O39            2.6748     1.1645    -0.2322 O.2     
  40 O40           -1.0750     0.8873    -2.7105 O.2     
  41 C41            0.6022    -0.3967     1.2646 C.3     
  42 C42           -1.4810    -0.5498    -0.1063 C.3     
  43 H43            0.2867    -1.2512    -2.0592 H       
  44 H44            1.7708    -1.1422    -1.0825 H       
  45 H45           -0.8840    -3.0267    -0.3200 H       
  46 H46            0.8671    -3.0221    -0.0009 H       
  47 H47           -1.4211    -4.6260     1.2969 H       
  48 H48            0.3233    -4.8519     1.5697 H       
  49 H49            0.0234    -4.2777     3.9632 H       
  50 H50           -1.7209    -4.0517     3.6905 H       
  51 H51           -1.9144    -6.4161     2.9686 H       
  52 H52           -0.1700    -6.6421     3.2413 H       
  53 H53           -0.4698    -6.0678     5.6349 H       
  54 H54           -2.2142    -5.8419     5.3622 H       
  55 H55           -2.4077    -8.2062     4.6403 H       
  56 H56           -0.6633    -8.4322     4.9130 H       
  57 H57           -0.9631    -7.8580     7.3066 H       
  58 H58           -2.7075    -7.6320     7.0338 H       
  59 H59            0.6708    -1.3987     2.8100 H       
  60 H60            0.8884    -3.0669     3.3912 H       
  61 H61            1.7141    -2.5256     1.9101 H       
  62 H62           -2.2755    -2.1177     1.3290 H       
  63 H63           -1.9780    -2.6241     3.0093 H       
  64 H64           -1.2703    -1.1097     2.3976 H       
  65 H65           -1.4367    -9.5767     8.9116 H       
  66 H66           -3.1811    -9.3507     8.6389 H       
  67 H67           -3.3745   -11.7151     7.9170 H       
  68 H68           -1.6302   -11.9411     8.1898 H       
  69 H69           -1.9300   -11.3668    10.5833 H       
  70 H70           -3.6744   -11.1409    10.3106 H       
  71 H71           -2.9985    -9.8413     5.0446 H       
  72 H72           -3.3499   -11.1166     6.2356 H       
  73 H73           -4.0776    -9.5026     6.4190 H       
  74 H74            0.0176   -10.0332     7.0593 H       
  75 H75           -0.9990   -11.4212     6.6031 H       
  76 H76           -0.6476   -10.1459     5.4122 H       
  77 H77           -1.0755   -16.7636    10.9829 H       
  78 H78           -2.6095   -18.6910    11.0627 H       
  79 H79           -5.0151   -18.3794    10.6860 H       
  80 H80           -5.9243   -16.1353    10.2258 H       
  81 H81            2.9343     4.1858    -0.5591 H       
  82 H82            1.9471     6.2118    -1.5568 H       
  83 H83           -0.0991     6.0612    -2.9045 H       
  84 H84           -1.1902     3.8825    -3.2748 H       
  85 H85            0.7946     0.6504     1.0310 H       
  86 H86           -0.0637    -0.4606     2.1252 H       
  87 H87            1.5431    -0.8963     1.4954 H       
  88 H88           -2.0182    -1.1766    -0.8181 H       
  89 H89           -1.9918    -0.5733     0.8563 H       
  90 H90           -1.4496     0.4751    -0.4761 H       
@<TRIPOS>BOND
   1    1    2 1
   2    1   31 am
   3    1   34 am
   4    2    3 1
   5    2   43 1
   6    2   44 1
   7    3    4 1
   8    3   41 1
   9    3   42 1
  10    4    5 1
  11    4   45 1
  12    4   46 1
  13    5    6 1
  14    5   12 1
  15    5   13 1
  16    6    7 1
  17    6   47 1
  18    6   48 1
  19    7    8 1
  20    7   49 1
  21    7   50 1
  22    8    9 1
  23    8   51 1
  24    8   52 1
  25    9   10 1
  26    9   53 1
  27    9   54 1
  28   10   11 1
  29   10   55 1
  30   10   56 1
  31   11   14 1
  32   11   57 1
  33   11   58 1
  34   12   59 1
  35   12   60 1
  36   12   61 1
  37   13   62 1
  38   13   63 1
  39   13   64 1
  40   14   15 1
  41   14   19 1
  42   14   20 1
  43   15   16 1
  44   15   65 1
  45   15   66 1
  46   16   17 1
  47   16   67 1
  48   16   68 1
  49   17   18 1
  50   17   69 1
  51   17   70 1
  52   18   21 am
  53   18   24 am
  54   19   71 1
  55   19   72 1
  56   19   73 1
  57   20   74 1
  58   20   75 1
  59   20   76 1
  60   21   22 1
  61   21   30 2
  62   22   23 ar
  63   22   25 ar
  64   23   24 1
  65   23   28 ar
  66   24   29 2
  67   25   26 ar
  68   25   77 1
  69   26   27 ar
  70   26   78 1
  71   27   28 ar
  72   27   79 1
  73   28   80 1
  74   31   32 1
  75   31   39 2
  76   32   33 ar
  77   32   35 ar
  78   33   34 1
  79   33   38 ar
  80   34   40 2
  81   35   36 ar
  82   35   81 1
  83   36   37 ar
  84   36   82 1
  85   37   38 ar
  86   37   83 1
  87   38   84 1
  88   41   85 1
  89   41   86 1
  90   41   87 1
  91   42   88 1
  92   42   89 1
  93   42   90 1

#	End of record

