#	Name: ASD09860003
#	Creating user name:	WinNT
#	Creation time:	15. 06. 2019 21:24

#	Modifying user name:	WinNT
#	Modification time:	15. 06. 2019 21:24

#	Program:	/corina/corina34_cracker 3.40 0067  02.08.2006

@<TRIPOS>MOLECULE
ASD09860003
  43   45    0    0    0
SMALL
NO_CHARGES


@<TRIPOS>ATOM
   1 C1             0.0678     1.2628     0.5815 C.ar    
   2 C2            -0.0039     0.0054    -0.0271 C.ar    
   3 C3            -1.2001    -0.6838    -0.0022 C.ar    
   4 N4            -2.2652    -0.1737     0.5839 N.ar    
   5 C5            -2.2443     1.0063     1.1695 C.ar    
   6 C6            -1.0861     1.7649     1.1974 C.ar    
   7 F7            -1.0718     2.9740     1.8001 F       
   8 C8             1.3281     2.0378     0.5804 C.2     
   9 N9             2.4285     1.5341    -0.0129 N.am    
  10 O10            1.3712     3.1288     1.1144 O.2     
  11 C11            3.5864     2.3106    -0.1123 C.ar    
  12 C12            4.8357     1.7087    -0.0179 C.ar    
  13 C13            5.9792     2.4726    -0.1152 C.ar    
  14 C14            5.8817     3.8499    -0.3089 C.ar    
  15 C15            4.6275     4.4513    -0.4037 C.ar    
  16 C16            3.4868     3.6826    -0.3110 C.ar    
  17 C17            7.1103     4.6739    -0.4134 C.ar    
  18 C18            7.2643     5.5724    -1.4730 C.ar    
  19 C19            8.4141     6.3395    -1.5656 C.ar    
  20 C20            9.4078     6.2174    -0.6132 C.ar    
  21 C21            9.2604     5.3264     0.4410 C.ar    
  22 C22            8.1126     4.5595     0.5473 C.ar    
  23 O23            6.2879     5.6928    -2.4111 O.3     
  24 C24            6.5134     6.6306    -3.4655 C.3     
  25 O25           10.2425     5.2111     1.3745 O.3     
  26 C26           11.3966     6.0370     1.2073 C.3     
  27 H27            0.8636    -0.4199    -0.5098 H       
  28 H28           -1.2643    -1.6551    -0.4701 H       
  29 H29           -3.1411     1.3852     1.6371 H       
  30 H30            2.4168     0.6326    -0.3709 H       
  31 H31            4.9107     0.6418     0.1321 H       
  32 H32            6.9497     2.0046    -0.0412 H       
  33 H33            4.5496     5.5180    -0.5538 H       
  34 H34            2.5150     4.1481    -0.3844 H       
  35 H35            8.5342     7.0340    -2.3839 H       
  36 H36           10.3027     6.8172    -0.6895 H       
  37 H37            7.9988     3.8669     1.3680 H       
  38 H38            5.6597     6.6276    -4.1432 H       
  39 H39            6.6392     7.6279    -3.0440 H       
  40 H40            7.4134     6.3517    -4.0136 H       
  41 H41           12.1002     5.8465     2.0178 H       
  42 H42           11.8714     5.8090     0.2530 H       
  43 H43           11.0987     7.0853     1.2236 H       
@<TRIPOS>BOND
   1    1    2 ar
   2    1    8 1
   3    1    6 ar
   4    2    3 ar
   5    2   27 1
   6    3    4 ar
   7    3   28 1
   8    4    5 ar
   9    5    6 ar
  10    5   29 1
  11    6    7 1
  12    8    9 am
  13    8   10 2
  14    9   11 1
  15    9   30 1
  16   11   12 ar
  17   11   16 ar
  18   12   13 ar
  19   12   31 1
  20   13   14 ar
  21   13   32 1
  22   14   15 ar
  23   14   17 1
  24   15   16 ar
  25   15   33 1
  26   16   34 1
  27   17   18 ar
  28   17   22 ar
  29   18   19 ar
  30   18   23 1
  31   19   20 ar
  32   19   35 1
  33   20   21 ar
  34   20   36 1
  35   21   22 ar
  36   21   25 1
  37   22   37 1
  38   23   24 1
  39   24   38 1
  40   24   39 1
  41   24   40 1
  42   25   26 1
  43   26   41 1
  44   26   42 1
  45   26   43 1

#	End of record

