#	Name: ASD01914481
#	Creating user name:	WinNT
#	Creation time:	15. 06. 2019 20:03

#	Modifying user name:	WinNT
#	Modification time:	15. 06. 2019 20:03

#	Program:	/corina/corina34_cracker 3.40 0067  02.08.2006

@<TRIPOS>MOLECULE
ASD01914481
  59   63    0    0    0
SMALL
NO_CHARGES


@<TRIPOS>ATOM
   1 N1             0.0268     1.3902    -0.1032 N.2     
   2 C2            -0.0386     0.0588     0.0783 C.2     
   3 C3             1.2326    -0.4203     0.1481 C.2     
   4 N4             2.0696     0.6508     0.0048 N.pl3   
   5 C5             1.2866     1.7580    -0.1490 C.2     
   6 C6            -1.2805    -0.7464     0.1843 C.ar    
   7 C7            -1.2084    -2.1072     0.4768 C.ar    
   8 C8            -2.5225    -0.1431    -0.0026 C.ar    
   9 C9            -3.6749    -0.8958     0.0968 C.ar    
  10 C10           -3.5982    -2.2491     0.3821 C.ar    
  11 C11           -2.3656    -2.8520     0.5744 C.ar    
  12 C12           -5.0188    -0.2443    -0.1047 C.3     
  13 F13           -4.7289    -2.9822     0.4786 F       
  14 C14            1.7755     3.1414    -0.3361 C.ar    
  15 C15            3.0836     3.4759     0.0157 C.ar    
  16 C16            3.5337     4.7680    -0.1617 C.ar    
  17 C17            2.6909     5.7311    -0.6873 C.ar    
  18 C18            1.3926     5.4060    -1.0378 C.ar    
  19 C19            0.9322     4.1162    -0.8706 C.ar    
  20 C20            3.5341     0.6167     0.0150 C.3     
  21 C21            4.0323     0.8495     1.4181 C.2     
  22 O22            3.2418     1.0265     2.3207 O.2     
  23 N23            5.3563     0.8611     1.6699 N.am    
  24 C24            5.8638     1.0865     3.0318 C.3     
  25 C25            6.3318     0.6425     0.5911 C.3     
  26 C26            7.3072    -0.4542     1.0316 C.3     
  27 N27            7.8890    -0.0943     2.3316 N.3     
  28 C28            6.8585    -0.0286     3.3714 C.3     
  29 C29            8.8984    -0.9826     2.6859 C.ar    
  30 N30            8.8379    -1.6338     3.8384 N.ar    
  31 C31            9.9762    -1.1967     1.8275 C.ar    
  32 C32           10.9557    -2.0923     2.2269 C.ar    
  33 C33           10.8039    -2.7203     3.4551 C.ar    
  34 N34            9.7487    -2.4620     4.2017 N.ar    
  35 H35            1.5248    -1.4503     0.2897 H       
  36 H36           -0.2480    -2.5780     0.6265 H       
  37 H37           -2.5832     0.9121    -0.2247 H       
  38 H38           -2.3103    -3.9075     0.7962 H       
  39 H39           -5.2933    -0.2959    -1.1583 H       
  40 H40           -5.7680    -0.7648     0.4919 H       
  41 H41           -4.9671     0.7990     0.2067 H       
  42 H42            3.7424     2.7250     0.4265 H       
  43 H43            4.5459     5.0282     0.1106 H       
  44 H44            3.0480     6.7411    -0.8243 H       
  45 H45            0.7395     6.1625    -1.4472 H       
  46 H46           -0.0815     3.8637    -1.1446 H       
  47 H47            3.8774    -0.3566    -0.3356 H       
  48 H48            3.9203     1.3963    -0.6417 H       
  49 H49            6.3661     2.0526     3.0801 H       
  50 H50            5.0350     1.0658     3.7395 H       
  51 H51            5.8123     0.3284    -0.3143 H       
  52 H52            6.8800     1.5652     0.4006 H       
  53 H53            6.7740    -1.4006     1.1212 H       
  54 H54            8.1020    -0.5526     0.2922 H       
  55 H55            7.3256     0.1817     4.3335 H       
  56 H56            6.3323    -0.9818     3.4227 H       
  57 H57           10.0454    -0.6811     0.8810 H       
  58 H58           11.8117    -2.2957     1.6006 H       
  59 H59           11.5483    -3.4239     3.7973 H       
@<TRIPOS>BOND
   1    1    2 1
   2    1    5 2
   3    2    3 2
   4    2    6 1
   5    3    4 1
   6    3   35 1
   7    4    5 1
   8    4   20 1
   9    5   14 1
  10    6    7 ar
  11    6    8 ar
  12    7   11 ar
  13    7   36 1
  14    8    9 ar
  15    8   37 1
  16    9   10 ar
  17    9   12 1
  18   10   11 ar
  19   10   13 1
  20   11   38 1
  21   12   39 1
  22   12   40 1
  23   12   41 1
  24   14   15 ar
  25   14   19 ar
  26   15   16 ar
  27   15   42 1
  28   16   17 ar
  29   16   43 1
  30   17   18 ar
  31   17   44 1
  32   18   19 ar
  33   18   45 1
  34   19   46 1
  35   20   21 1
  36   20   47 1
  37   20   48 1
  38   21   22 2
  39   21   23 am
  40   23   24 1
  41   23   25 1
  42   24   28 1
  43   24   49 1
  44   24   50 1
  45   25   26 1
  46   25   51 1
  47   25   52 1
  48   26   27 1
  49   26   53 1
  50   26   54 1
  51   27   28 1
  52   27   29 1
  53   28   55 1
  54   28   56 1
  55   29   30 ar
  56   29   31 ar
  57   30   34 ar
  58   31   32 ar
  59   31   57 1
  60   32   33 ar
  61   32   58 1
  62   33   34 ar
  63   33   59 1

#	End of record

