#	Name: ASD01883033
#	Creating user name:	WinNT
#	Creation time:	15. 06. 2019 19:45

#	Modifying user name:	WinNT
#	Modification time:	15. 06. 2019 19:45

#	Program:	/corina/corina34_cracker 3.40 0067  02.08.2006

@<TRIPOS>MOLECULE
ASD01883033
  51   53    0    0    0
SMALL
NO_CHARGES


@<TRIPOS>ATOM
   1 N1            -1.9177     3.6246    -0.6910 N.am    
   2 C2            -1.5271     2.4027    -1.0980 C.2     
   3 C3            -2.4147     1.3040    -0.9881 C.2     
   4 C4            -3.6956     1.5224    -0.4504 C.2     
   5 C5            -4.0447     2.8249    -0.0425 C.2     
   6 C6            -3.1529     3.8337    -0.1671 C.2     
   7 O7            -0.4107     2.2415    -1.5610 O.2     
   8 C8            -2.0158    -0.0029    -1.4166 C.1     
   9 N9            -1.6993    -1.0396    -1.7566 N.1     
  10 C10           -0.9889     4.7513    -0.8102 C.3     
  11 C11           -1.1725     5.4216    -2.1733 C.3     
  12 C12           -6.0499    -1.2673    -1.3281 C.ar    
  13 C13           -4.6565     0.4079    -0.3163 C.ar    
  14 C14           -5.0705    -0.0110     0.9504 C.ar    
  15 C15           -5.9680    -1.0514     1.0710 C.ar    
  16 C16           -6.4600    -1.6826    -0.0674 C.ar    
  17 O17           -7.3435    -2.7068     0.0542 O.3     
  18 C18           -7.7153    -3.3649    -1.0731 C.ar    
  19 C19           -6.9898    -4.4618    -1.5320 C.ar    
  20 C20           -7.4001    -5.1038    -2.6822 C.ar    
  21 N21           -8.4640    -4.6903    -3.3446 N.ar    
  22 C22           -9.1768    -3.6555    -2.9417 C.ar    
  23 C23           -8.8354    -2.9641    -1.7976 C.ar    
  24 C24           -5.1534    -0.2290    -1.4560 C.ar    
  25 C25           -0.2026     6.5983    -2.2977 C.3     
  26 C26           -0.3862     7.2686    -3.6608 C.3     
  27 C27          -10.3827    -3.2274    -3.7379 C.3     
  28 C28           -6.6235    -6.2918    -3.1887 C.3     
  29 F29           -6.3696    -1.4580     2.2952 F       
  30 H30           -5.0228     3.0168     0.3734 H       
  31 H31           -3.4318     4.8280     0.1490 H       
  32 H32           -1.1912     5.4741    -0.0197 H       
  33 H33            0.0351     4.3894    -0.7183 H       
  34 H34           -0.9703     4.6989    -2.9637 H       
  35 H35           -2.1965     5.7836    -2.2652 H       
  36 H36           -6.4305    -1.7625    -2.2091 H       
  37 H37           -4.6882     0.4788     1.8338 H       
  38 H38           -6.1178    -4.8048    -0.9950 H       
  39 H39           -9.4231    -2.1180    -1.4734 H       
  40 H40           -4.8352     0.0924    -2.4368 H       
  41 H41           -0.4048     7.3211    -1.5072 H       
  42 H42            0.8215     6.2364    -2.2058 H       
  43 H43           -0.1839     6.5459    -4.4513 H       
  44 H44           -1.4102     7.6306    -3.7527 H       
  45 H45            0.3049     8.1069    -3.7494 H       
  46 H46          -11.2654    -3.7501    -3.3696 H       
  47 H47          -10.5259    -2.1522    -3.6305 H       
  48 H48          -10.2288    -3.4703    -4.7892 H       
  49 H49           -7.0280    -7.2041    -2.7503 H       
  50 H50           -6.7051    -6.3431    -4.2744 H       
  51 H51           -5.5755    -6.1874    -2.9077 H       
@<TRIPOS>BOND
   1    1    2 am
   2    1   10 1
   3    1    6 1
   4    2    3 1
   5    2    7 2
   6    3    4 2
   7    3    8 1
   8    4    5 1
   9    4   13 1
  10    5    6 2
  11    5   30 1
  12    6   31 1
  13    8    9 3
  14   10   11 1
  15   10   32 1
  16   10   33 1
  17   11   25 1
  18   11   34 1
  19   11   35 1
  20   12   24 ar
  21   12   16 ar
  22   12   36 1
  23   13   14 ar
  24   13   24 ar
  25   14   15 ar
  26   14   37 1
  27   15   16 ar
  28   15   29 1
  29   16   17 1
  30   17   18 1
  31   18   19 ar
  32   18   23 ar
  33   19   20 ar
  34   19   38 1
  35   20   21 ar
  36   20   28 1
  37   21   22 ar
  38   22   23 ar
  39   22   27 1
  40   23   39 1
  41   24   40 1
  42   25   26 1
  43   25   41 1
  44   25   42 1
  45   26   43 1
  46   26   44 1
  47   26   45 1
  48   27   46 1
  49   27   47 1
  50   27   48 1
  51   28   49 1
  52   28   50 1
  53   28   51 1

#	End of record

