#	Name: ASD06610010
#	Creating user name:	WinNT
#	Creation time:	15. 06. 2019 21:07

#	Modifying user name:	WinNT
#	Modification time:	15. 06. 2019 21:07

#	Program:	/corina/corina34_cracker 3.40 0067  02.08.2006

@<TRIPOS>MOLECULE
ASD06610010
 332  333    0    0    0
SMALL
NO_CHARGES


@<TRIPOS>ATOM
   1 C1            -5.2364   -17.2113     9.0089 C.2     
   2 O2            -5.6697   -18.3410     9.0911 O.2     
   3 N3            -3.0541   -18.1996     9.3966 N.am    
   4 C4            -3.7482   -16.9744     8.9923 C.3     
   5 C5            -3.3099   -16.5825     7.5797 C.3     
   6 C6            -1.8028   -16.3190     7.5681 C.3     
   7 O7            -3.6147   -17.6452     6.6743 O.3     
   8 C8            -8.1887   -15.2289     8.1622 C.2     
   9 O9            -7.5194   -14.2874     7.7926 O.2     
  10 N10           -6.0857   -16.1681     8.9268 N.am    
  11 C11           -7.5288   -16.4037     8.8371 C.3     
  12 C12           -8.1062   -16.5743    10.2437 C.3     
  13 C13           -7.4362   -17.7670    10.9288 C.3     
  14 C14           -7.8462   -15.3058    11.0588 C.3     
  15 C15          -11.6064   -14.0015     7.7427 C.2     
  16 O16          -12.0544   -14.8176     8.5201 O.2     
  17 N17           -9.5226   -15.2244     7.9695 N.am    
  18 C18          -10.1641   -14.0823     7.3135 C.3     
  19 C19          -10.0930   -14.2601     5.7955 C.3     
  20 C20           -8.6534   -14.2179     5.3517 C.ar    
  21 C21           -7.9144   -15.3845     5.2907 C.ar    
  22 C22           -6.5939   -15.3458     4.8837 C.ar    
  23 C23           -6.0126   -14.1404     4.5372 C.ar    
  24 C24           -6.7518   -12.9739     4.5973 C.ar    
  25 C25           -8.0736   -13.0132     5.0002 C.ar    
  26 C26          -14.6004   -12.2289     6.6217 C.2     
  27 O27          -14.0531   -11.8248     5.6176 O.2     
  28 N28          -12.3985   -13.0224     7.2628 N.am    
  29 C29          -13.8006   -12.9438     7.6801 C.3     
  30 C30          -13.8978   -12.1747     8.9992 C.3     
  31 C31          -13.1906   -12.9637    10.1029 C.3     
  32 C32          -13.2878   -12.1947    11.4219 C.3     
  33 N33          -12.6106   -12.9502    12.4788 N.pl3   
  34 C34          -12.5677   -12.4528    13.7597 C.2     
  35 N35          -13.1294   -11.3090    14.0339 N.2     
  36 N36          -11.9322   -13.1618    14.7515 N.pl3   
  37 C37          -17.9235   -10.7236     6.3890 C.2     
  38 O38          -18.1252   -10.8499     7.5782 O.2     
  39 N39          -15.9239   -12.0386     6.7908 N.am    
  40 C40          -16.7014   -11.3436     5.7619 C.3     
  41 C41          -17.1314   -12.3427     4.6859 C.3     
  42 O42          -18.0274   -13.2994     5.2550 O.3     
  43 C43          -21.0532    -9.2623     5.1921 C.2     
  44 O44          -20.8458    -9.6142     4.0501 O.2     
  45 N45          -18.7924   -10.0289     5.6281 N.am    
  46 C46          -19.9804    -9.4262     6.2377 C.3     
  47 C47          -19.6181    -8.0566     6.8156 C.3     
  48 O48          -19.2489    -7.1742     5.7540 O.3     
  49 C49          -24.2165    -7.4512     4.9147 C.2     
  50 O50          -24.0271    -6.8496     5.9506 O.2     
  51 N51          -22.2431    -8.7245     5.5259 N.am    
  52 C52          -23.2860    -8.5652     4.5094 C.3     
  53 C53          -24.0766    -9.8688     4.3812 C.3     
  54 C54          -23.1588   -10.9717     3.8500 C.3     
  55 C55          -23.9494   -12.2754     3.7218 C.3     
  56 N56          -23.0706   -13.3314     3.2132 N.pl3   
  57 C57          -23.5633   -14.5995     3.0148 C.2     
  58 N58          -22.7814   -15.5391     2.5623 N.2     
  59 N59          -24.8807   -14.8765     3.2937 N.pl3   
  60 C60          -27.5102    -6.2520     3.8773 C.2     
  61 O61          -27.6960    -7.2127     3.1608 O.2     
  62 N62          -25.2590    -7.1235     4.1260 N.am    
  63 C63          -26.1636    -6.0405     4.5200 C.3     
  64 C64          -25.5847    -4.7004     4.0619 C.3     
  65 C65          -24.2774    -4.4277     4.8086 C.3     
  66 C66          -23.7072    -3.1077     4.3574 C.2     
  67 O67          -24.2869    -2.4523     3.5241 O.2     
  68 O68          -22.5552    -2.6600     4.8812 O.3     
  69 C69          -30.5257    -4.2552     3.3455 C.2     
  70 O70          -29.9900    -3.2401     3.7371 O.2     
  71 N71          -28.5080    -5.3735     4.0989 N.am    
  72 C72          -29.8171    -5.5790     3.4742 C.3     
  73 C73          -30.6532    -6.5230     4.3407 C.3     
  74 C74          -33.9325    -3.1420     2.6258 C.2     
  75 O75          -34.3745    -4.2695     2.6920 O.2     
  76 N76          -31.7548    -4.1995     2.7953 N.am    
  77 C77          -32.4437    -2.9126     2.6703 C.3     
  78 C78          -31.9961    -2.2175     1.3829 C.3     
  79 C79          -30.5086    -1.8726     1.4802 C.3     
  80 C80          -30.0610    -1.1774     0.1928 C.3     
  81 N81          -28.6368    -0.8472     0.2860 N.pl3   
  82 C82          -28.0082    -0.2134    -0.7597 C.2     
  83 N83          -26.7411     0.0805    -0.6768 N.2     
  84 N84          -28.7163     0.1105    -1.8927 N.pl3   
  85 C85          -36.8839    -1.1696     1.7529 C.2     
  86 O86          -36.2141    -0.2554     1.3211 O.2     
  87 N87          -34.7726    -2.0943     2.5124 N.am    
  88 C88          -36.2199    -2.3173     2.4691 C.3     
  89 C89          -36.7643    -2.4115     3.8959 C.3     
  90 C90          -36.1843    -3.6498     4.5823 C.3     
  91 C91          -36.7287    -3.7440     6.0091 C.3     
  92 N92          -36.1733    -4.9296     6.6664 N.pl3   
  93 C93          -36.5217    -5.2230     7.9636 C.2     
  94 N94          -37.3460    -4.4463     8.6086 N.2     
  95 N95          -36.0005    -6.3357     8.5804 N.pl3   
  96 C96          -40.2978     0.0752     1.3551 C.2     
  97 O97          -40.7351    -0.6962     2.1825 O.2     
  98 N98          -38.2220    -1.1592     1.5922 N.am    
  99 C99          -38.8674    -0.0434     0.8959 C.3     
 100 C100         -38.8354    -0.2967    -0.6127 C.3     
 101 O101         -39.6295    -1.4442    -0.9200 O.3     
 102 C102         -43.2998     1.8251     0.2196 C.2     
 103 O103         -42.7731     2.1728    -0.8161 O.2     
 104 N104         -41.0912     1.0386     0.8463 N.am    
 105 C105         -42.4817     1.1540     1.2927 C.3     
 106 C106         -42.5385     1.9883     2.5739 C.3     
 107 C107         -45.3155     4.0928    -0.6765 C.2     
 108 O108         -44.6169     4.6481     0.1449 O.2     
 109 N109         -44.6167     2.0389     0.4108 N.am    
 110 C110         -45.4341     2.5905    -0.6726 C.3     
 111 C111         -46.8967     2.1950    -0.4601 C.3     
 112 C112         -47.0318     0.6974    -0.5607 C.2     
 113 O113         -46.0804     0.0252    -0.8814 O.2     
 114 O114         -48.2090     0.1103    -0.2940 O.3     
 115 C115         -47.3301     6.8303    -1.7868 C.2     
 116 O116         -48.2485     6.0741    -2.0229 O.2     
 117 N117         -45.9857     4.8194    -1.5927 N.am    
 118 C118         -45.9485     6.2829    -1.5368 C.3     
 119 C119         -44.9898     6.8099    -2.6064 C.3     
 120 C120         -45.3805     6.2350    -3.9694 C.3     
 121 C121         -46.7398     6.7978    -4.3897 C.3     
 122 C122         -43.5605     6.3847    -2.2643 C.3     
 123 C123         -48.7125    10.1224    -2.5707 C.2     
 124 O124         -47.6142    10.6351    -2.6134 O.2     
 125 N125         -47.5452     8.1602    -1.7481 N.am    
 126 C126         -48.8620     8.6998    -2.0965 C.3     
 127 C127         -49.7693     8.6653    -0.8651 C.3     
 128 C128         -50.0182     7.2340    -0.4644 C.ar    
 129 C129         -49.1693     6.6090     0.4298 C.ar    
 130 C130         -49.3976     5.2960     0.7973 C.ar    
 131 C131         -50.4750     4.6083     0.2709 C.ar    
 132 C132         -51.3244     5.2336    -0.6227 C.ar    
 133 C133         -51.0986     6.5479    -0.9868 C.ar    
 134 C134         -49.6448    13.1350    -2.2202 C.2     
 135 O135         -49.7490    12.6866    -1.1031 O.2     
 136 N136         -49.7993    10.8249    -2.9473 N.am    
 137 C137         -49.6540    12.2079    -3.4082 C.3     
 138 C138         -50.8253    12.5655    -4.3252 C.3     
 139 C139         -50.6100    13.9648    -4.9054 C.3     
 140 C140         -51.7154    14.2729    -5.9174 C.3     
 141 C141         -52.1275    12.5412    -3.5223 C.3     
 142 O142         -49.5210    14.4590    -2.4030 O.3     
 143 C143          -1.8220   -18.1287     9.9380 C.2     
 144 O144          -1.2877   -17.0507    10.0905 O.2     
 145 C145          13.5549   -25.8427    17.3699 C.3     
 146 C146          12.8301   -24.5632    16.9477 C.3     
 147 C147          11.4602   -24.9208    16.3676 C.3     
 148 C148          10.7354   -23.6412    15.9454 C.3     
 149 C149           9.3655   -23.9988    15.3653 C.3     
 150 C150           8.6407   -22.7193    14.9431 C.3     
 151 C151           7.2708   -23.0769    14.3631 C.3     
 152 C152           6.5460   -21.7973    13.9408 C.3     
 153 C153           5.1761   -22.1549    13.3608 C.3     
 154 C154           4.4513   -20.8754    12.9385 C.3     
 155 C155           3.0814   -21.2329    12.3585 C.3     
 156 C156           2.3566   -19.9534    11.9362 C.3     
 157 C157           0.9867   -20.3110    11.3562 C.3     
 158 C158           0.2619   -19.0314    10.9339 C.3     
 159 C159          -1.1080   -19.3890    10.3539 C.3     
 160 H160          -3.4814   -19.0618     9.2746 H       
 161 H161          -3.5004   -16.1708     9.6857 H       
 162 H162          -3.8389   -15.6803     7.2724 H       
 163 H163          -1.2698   -17.2493     7.7645 H       
 164 H164          -1.5093   -15.9310     6.5926 H       
 165 H165          -1.5556   -15.5889     8.3388 H       
 166 H166          -4.5549   -17.8667     6.6302 H       
 167 H167          -5.7415   -15.2612     8.9270 H       
 168 H168          -7.7140   -17.3074     8.2563 H       
 169 H169          -9.1799   -16.7496    10.1769 H       
 170 H170          -6.3625   -17.5917    10.9955 H       
 171 H171          -7.8475   -17.8885    11.9309 H       
 172 H172          -7.6214   -18.6707    10.3480 H       
 173 H173          -8.3235   -14.4561    10.5707 H       
 174 H174          -8.2575   -15.4273    12.0609 H       
 175 H175          -6.7725   -15.1305    11.1256 H       
 176 H176         -10.0579   -15.9774     8.2651 H       
 177 H177          -9.6488   -13.1644     7.5963 H       
 178 H178         -10.5297   -15.2204     5.5213 H       
 179 H179         -10.6468   -13.4570     5.3093 H       
 180 H180          -8.3686   -16.3262     5.5615 H       
 181 H181          -6.0164   -16.2571     4.8367 H       
 182 H182          -4.9807   -14.1100     4.2198 H       
 183 H183          -6.2975   -12.0321     4.3268 H       
 184 H184          -8.6522   -12.1024     5.0436 H       
 185 H185         -12.0402   -12.3697     6.6411 H       
 186 H186         -14.1961   -13.9503     7.8164 H       
 187 H187         -13.4223   -11.2003     8.8875 H       
 188 H188         -14.9463   -12.0391     9.2643 H       
 189 H189         -13.6661   -13.9382    10.2146 H       
 190 H190         -12.1421   -13.0993     9.8378 H       
 191 H191         -12.8123   -11.2202    11.3103 H       
 192 H192         -14.3363   -12.0591    11.6871 H       
 193 H193         -12.1926   -13.8014    12.2747 H       
 194 H194         -13.0991   -10.9581    14.9377 H       
 195 H195         -11.5142   -14.0130    14.5475 H       
 196 H196         -11.9019   -12.8109    15.6553 H       
 197 H197         -16.3616   -12.3618     7.5939 H       
 198 H198         -16.0896   -10.5632     5.3094 H       
 199 H199         -17.6329   -11.8117     3.8767 H       
 200 H200         -16.2529   -12.8556     4.2944 H       
 201 H201         -18.3416   -13.9655     4.6283 H       
 202 H202         -18.6311    -9.9279     4.6770 H       
 203 H203         -20.3466   -10.0720     7.0358 H       
 204 H204         -20.4777    -7.6472     7.3461 H       
 205 H205         -18.7819    -8.1636     7.5066 H       
 206 H206         -19.0061    -6.2855     6.0478 H       
 207 H207         -22.4090    -8.4430     6.4392 H       
 208 H208         -22.8257    -8.3237     3.5514 H       
 209 H209         -24.4630   -10.1571     5.3588 H       
 210 H210         -24.9073    -9.7235     3.6906 H       
 211 H211         -22.7724   -10.6835     2.8724 H       
 212 H212         -22.3281   -11.1171     4.5406 H       
 213 H213         -24.3358   -12.5637     4.6994 H       
 214 H214         -24.7801   -12.1300     3.0312 H       
 215 H215         -22.1411   -13.1360     3.0164 H       
 216 H216         -23.1290   -16.4338     2.4224 H       
 217 H217         -25.4626   -14.1773     3.6305 H       
 218 H218         -25.2283   -15.7712     3.1538 H       
 219 H219         -25.4105    -7.6046     3.2975 H       
 220 H220         -26.2751    -6.0366     5.6042 H       
 221 H221         -25.3902    -4.7360     2.9900 H       
 222 H222         -26.2980    -3.9044     4.2756 H       
 223 H223         -24.4718    -4.3921     5.8805 H       
 224 H224         -23.5641    -5.2237     4.5949 H       
 225 H225         -22.2289    -1.8081     4.5605 H       
 226 H226         -28.3594    -4.6051     4.6720 H       
 227 H227         -29.6829    -6.0169     2.4851 H       
 228 H228         -31.6271    -6.6759     3.8759 H       
 229 H229         -30.1406    -7.4804     4.4337 H       
 230 H230         -30.7873    -6.0850     5.3298 H       
 231 H231         -32.1833    -5.0114     2.4821 H       
 232 H232         -32.1983    -2.2844     3.5266 H       
 233 H233         -32.1601    -2.8825     0.5350 H       
 234 H234         -32.5728    -1.3030     1.2444 H       
 235 H235         -30.3446    -1.2076     2.3281 H       
 236 H236         -29.9319    -2.7871     1.6188 H       
 237 H237         -30.2251    -1.8424    -0.6551 H       
 238 H238         -30.6377    -0.2630     0.0543 H       
 239 H239         -28.1372    -1.0757     1.0854 H       
 240 H240         -26.2976     0.5277    -1.4145 H       
 241 H241         -29.6593    -0.1081    -1.9544 H       
 242 H242         -28.2729     0.5577    -2.6305 H       
 243 H243         -34.4191    -1.1926     2.4594 H       
 244 H244         -36.4287    -3.2463     1.9385 H       
 245 H245         -36.4785    -1.5196     4.4534 H       
 246 H246         -37.8512    -2.4884     3.8657 H       
 247 H247         -36.4701    -4.5417     4.0248 H       
 248 H248         -35.0974    -3.5729     4.6125 H       
 249 H249         -36.4429    -2.8521     6.5667 H       
 250 H250         -37.8156    -3.8209     5.9789 H       
 251 H251         -35.5599    -5.5077     6.1864 H       
 252 H252         -37.5918    -4.6533     9.5239 H       
 253 H253         -35.3870    -6.9137     8.1004 H       
 254 H254         -36.2462    -6.5427     9.4957 H       
 255 H255         -38.7577    -1.8904     1.9375 H       
 256 H256         -38.3358     0.8813     1.1204 H       
 257 H257         -39.2349     0.5723    -1.1355 H       
 258 H258         -37.8072    -0.4707    -0.9301 H       
 259 H259         -39.6549    -1.6644    -1.8613 H       
 260 H260         -40.7415     1.6557     0.1845 H       
 261 H261         -42.8842     0.1601     1.4881 H       
 262 H262         -43.5731     2.0741     2.9060 H       
 263 H263         -41.9469     1.5029     3.3501 H       
 264 H264         -42.1361     2.9822     2.3784 H       
 265 H265         -45.0232     1.8275     1.2657 H       
 266 H266         -45.0861     2.1961    -1.6273 H       
 267 H267         -47.2223     2.5237     0.5268 H       
 268 H268         -47.5154     2.6676    -1.2229 H       
 269 H269         -48.2470    -0.8528    -0.3720 H       
 270 H270         -46.4926     4.3733    -2.2890 H       
 271 H271         -45.6046     6.6003    -0.5524 H       
 272 H272         -45.0468     7.8979    -2.6411 H       
 273 H273         -44.6288     6.5106    -4.7090 H       
 274 H274         -45.4423     5.1489    -3.9014 H       
 275 H275         -47.5260     6.3278    -3.7989 H       
 276 H276         -46.7544     7.8749    -4.2226 H       
 277 H277         -46.9072     6.5918    -5.4468 H       
 278 H278         -43.4742     5.3013    -2.3465 H       
 279 H279         -42.8649     6.8582    -2.9571 H       
 280 H280         -43.3241     6.6917    -1.2455 H       
 281 H281         -46.8282     8.7602    -1.4896 H       
 282 H282         -49.3033     8.0968    -2.8900 H       
 283 H283         -49.2866     9.1940    -0.0432 H       
 284 H284         -50.7184     9.1472    -1.0995 H       
 285 H285         -48.3276     7.1463     0.8411 H       
 286 H286         -48.7340     4.8075     1.4954 H       
 287 H287         -50.6529     3.5823     0.5574 H       
 288 H288         -52.1660     4.6962    -1.0342 H       
 289 H289         -51.7644     7.0376    -1.6821 H       
 290 H290         -50.6777    10.4148    -2.9131 H       
 291 H291         -48.7180    12.3115    -3.9571 H       
 292 H292         -50.8855    11.8408    -5.1372 H       
 293 H293         -50.6385    14.6999    -4.1012 H       
 294 H294         -49.6407    14.0070    -5.4020 H       
 295 H295         -52.6847    14.2307    -5.4208 H       
 296 H296         -51.5620    15.2698    -6.3308 H       
 297 H297         -51.6869    13.5378    -6.7217 H       
 298 H298         -52.9620    12.7960    -4.1756 H       
 299 H299         -52.2809    11.5443    -3.1090 H       
 300 H300         -52.0673    13.2659    -2.7104 H       
 301 H301         -49.5203    15.0134    -1.6108 H       
 302 H302          12.9650   -26.3622    18.1251 H       
 303 H303          13.6853   -26.4896    16.5024 H       
 304 H304          14.5309   -25.5880    17.7831 H       
 305 H305          12.6997   -23.9163    17.8152 H       
 306 H306          13.4201   -24.0437    16.1925 H       
 307 H307          11.5906   -25.5676    15.5001 H       
 308 H308          10.8703   -25.4402    17.1228 H       
 309 H309          10.6050   -22.9943    16.8129 H       
 310 H310          11.3254   -23.1218    15.1902 H       
 311 H311           9.4959   -24.6457    14.4978 H       
 312 H312           8.7756   -24.5183    16.1205 H       
 313 H313           8.5103   -22.0724    15.8106 H       
 314 H314           9.2307   -22.1998    14.1879 H       
 315 H315           7.4012   -23.7237    13.4955 H       
 316 H316           6.6809   -23.5963    15.1182 H       
 317 H317           6.4156   -21.1504    14.8084 H       
 318 H318           7.1359   -21.2779    13.1857 H       
 319 H319           5.3065   -22.8018    12.4932 H       
 320 H320           4.5862   -22.6743    14.1159 H       
 321 H321           4.3209   -20.2285    13.8061 H       
 322 H322           5.0412   -20.3559    12.1834 H       
 323 H323           3.2118   -21.8798    11.4909 H       
 324 H324           2.4914   -21.7524    13.1136 H       
 325 H325           2.2262   -19.3065    12.8038 H       
 326 H326           2.9465   -19.4340    11.1811 H       
 327 H327           1.1171   -20.9579    10.4886 H       
 328 H328           0.3967   -20.8304    12.1113 H       
 329 H329           0.1315   -18.3846    11.8015 H       
 330 H330           0.8518   -18.5120    10.1788 H       
 331 H331          -1.6980   -19.9085    11.1090 H       
 332 H332          -0.9776   -20.0359     9.4863 H       
@<TRIPOS>BOND
   1    1    2 2
   2    1    4 1
   3    1   10 am
   4    3  143 am
   5    3    4 1
   6    3  160 1
   7    4    5 1
   8    4  161 1
   9    5    6 1
  10    5    7 1
  11    5  162 1
  12    6  163 1
  13    6  164 1
  14    6  165 1
  15    7  166 1
  16    8    9 2
  17    8   11 1
  18    8   17 am
  19   10   11 1
  20   10  167 1
  21   11   12 1
  22   11  168 1
  23   12   13 1
  24   12   14 1
  25   12  169 1
  26   13  170 1
  27   13  171 1
  28   13  172 1
  29   14  173 1
  30   14  174 1
  31   14  175 1
  32   15   16 2
  33   15   18 1
  34   15   28 am
  35   17   18 1
  36   17  176 1
  37   18   19 1
  38   18  177 1
  39   19   20 1
  40   19  178 1
  41   19  179 1
  42   20   21 ar
  43   20   25 ar
  44   21   22 ar
  45   21  180 1
  46   22   23 ar
  47   22  181 1
  48   23   24 ar
  49   23  182 1
  50   24   25 ar
  51   24  183 1
  52   25  184 1
  53   26   27 2
  54   26   29 1
  55   26   39 am
  56   28   29 1
  57   28  185 1
  58   29   30 1
  59   29  186 1
  60   30   31 1
  61   30  187 1
  62   30  188 1
  63   31   32 1
  64   31  189 1
  65   31  190 1
  66   32   33 1
  67   32  191 1
  68   32  192 1
  69   33   34 1
  70   33  193 1
  71   34   35 2
  72   34   36 1
  73   35  194 1
  74   36  195 1
  75   36  196 1
  76   37   38 2
  77   37   40 1
  78   37   45 am
  79   39   40 1
  80   39  197 1
  81   40   41 1
  82   40  198 1
  83   41   42 1
  84   41  199 1
  85   41  200 1
  86   42  201 1
  87   43   44 2
  88   43   46 1
  89   43   51 am
  90   45   46 1
  91   45  202 1
  92   46   47 1
  93   46  203 1
  94   47   48 1
  95   47  204 1
  96   47  205 1
  97   48  206 1
  98   49   50 2
  99   49   52 1
 100   49   62 am
 101   51   52 1
 102   51  207 1
 103   52   53 1
 104   52  208 1
 105   53   54 1
 106   53  209 1
 107   53  210 1
 108   54   55 1
 109   54  211 1
 110   54  212 1
 111   55   56 1
 112   55  213 1
 113   55  214 1
 114   56   57 1
 115   56  215 1
 116   57   58 2
 117   57   59 1
 118   58  216 1
 119   59  217 1
 120   59  218 1
 121   60   61 2
 122   60   63 1
 123   60   71 am
 124   62   63 1
 125   62  219 1
 126   63   64 1
 127   63  220 1
 128   64   65 1
 129   64  221 1
 130   64  222 1
 131   65   66 1
 132   65  223 1
 133   65  224 1
 134   66   67 2
 135   66   68 1
 136   68  225 1
 137   69   70 2
 138   69   72 1
 139   69   76 am
 140   71   72 1
 141   71  226 1
 142   72   73 1
 143   72  227 1
 144   73  228 1
 145   73  229 1
 146   73  230 1
 147   74   75 2
 148   74   77 1
 149   74   87 am
 150   76   77 1
 151   76  231 1
 152   77   78 1
 153   77  232 1
 154   78   79 1
 155   78  233 1
 156   78  234 1
 157   79   80 1
 158   79  235 1
 159   79  236 1
 160   80   81 1
 161   80  237 1
 162   80  238 1
 163   81   82 1
 164   81  239 1
 165   82   83 2
 166   82   84 1
 167   83  240 1
 168   84  241 1
 169   84  242 1
 170   85   86 2
 171   85   88 1
 172   85   98 am
 173   87   88 1
 174   87  243 1
 175   88   89 1
 176   88  244 1
 177   89   90 1
 178   89  245 1
 179   89  246 1
 180   90   91 1
 181   90  247 1
 182   90  248 1
 183   91   92 1
 184   91  249 1
 185   91  250 1
 186   92   93 1
 187   92  251 1
 188   93   94 2
 189   93   95 1
 190   94  252 1
 191   95  253 1
 192   95  254 1
 193   96   97 2
 194   96   99 1
 195   96  104 am
 196   98   99 1
 197   98  255 1
 198   99  100 1
 199   99  256 1
 200  100  101 1
 201  100  257 1
 202  100  258 1
 203  101  259 1
 204  102  103 2
 205  102  105 1
 206  102  109 am
 207  104  105 1
 208  104  260 1
 209  105  106 1
 210  105  261 1
 211  106  262 1
 212  106  263 1
 213  106  264 1
 214  107  108 2
 215  107  110 1
 216  107  117 am
 217  109  110 1
 218  109  265 1
 219  110  111 1
 220  110  266 1
 221  111  112 1
 222  111  267 1
 223  111  268 1
 224  112  113 2
 225  112  114 1
 226  114  269 1
 227  115  116 2
 228  115  118 1
 229  115  125 am
 230  117  118 1
 231  117  270 1
 232  118  119 1
 233  118  271 1
 234  119  120 1
 235  119  122 1
 236  119  272 1
 237  120  121 1
 238  120  273 1
 239  120  274 1
 240  121  275 1
 241  121  276 1
 242  121  277 1
 243  122  278 1
 244  122  279 1
 245  122  280 1
 246  123  124 2
 247  123  126 1
 248  123  136 am
 249  125  126 1
 250  125  281 1
 251  126  127 1
 252  126  282 1
 253  127  128 1
 254  127  283 1
 255  127  284 1
 256  128  129 ar
 257  128  133 ar
 258  129  130 ar
 259  129  285 1
 260  130  131 ar
 261  130  286 1
 262  131  132 ar
 263  131  287 1
 264  132  133 ar
 265  132  288 1
 266  133  289 1
 267  134  135 2
 268  134  137 1
 269  134  142 1
 270  136  137 1
 271  136  290 1
 272  137  138 1
 273  137  291 1
 274  138  139 1
 275  138  141 1
 276  138  292 1
 277  139  140 1
 278  139  293 1
 279  139  294 1
 280  140  295 1
 281  140  296 1
 282  140  297 1
 283  141  298 1
 284  141  299 1
 285  141  300 1
 286  142  301 1
 287  143  144 2
 288  143  159 1
 289  145  146 1
 290  145  302 1
 291  145  303 1
 292  145  304 1
 293  146  147 1
 294  146  305 1
 295  146  306 1
 296  147  148 1
 297  147  307 1
 298  147  308 1
 299  148  149 1
 300  148  309 1
 301  148  310 1
 302  149  150 1
 303  149  311 1
 304  149  312 1
 305  150  151 1
 306  150  313 1
 307  150  314 1
 308  151  152 1
 309  151  315 1
 310  151  316 1
 311  152  153 1
 312  152  317 1
 313  152  318 1
 314  153  154 1
 315  153  319 1
 316  153  320 1
 317  154  155 1
 318  154  321 1
 319  154  322 1
 320  155  156 1
 321  155  323 1
 322  155  324 1
 323  156  157 1
 324  156  325 1
 325  156  326 1
 326  157  158 1
 327  157  327 1
 328  157  328 1
 329  158  159 1
 330  158  329 1
 331  158  330 1
 332  159  331 1
 333  159  332 1

#	End of record

