#	Name: ASD01911160
#	Creating user name:	WinNT
#	Creation time:	15. 06. 2019 19:57

#	Modifying user name:	WinNT
#	Modification time:	15. 06. 2019 19:57

#	Program:	/corina/corina34_cracker 3.40 0067  02.08.2006

@<TRIPOS>MOLECULE
ASD01911160
  44   47    0    0    0
SMALL
NO_CHARGES


@<TRIPOS>ATOM
   1 C1             0.0031     1.3383    -0.1336 C.ar    
   2 C2             0.0301    -0.0469    -0.1758 C.ar    
   3 C3             1.2350    -0.7240    -0.1984 C.ar    
   4 C4             2.4331    -0.0270    -0.1797 C.ar    
   5 C5             2.4215     1.3579    -0.1380 C.ar    
   6 C6             1.1929     2.0483    -0.1145 C.ar    
   7 C7             3.4709     2.3986    -0.1082 C.2     
   8 N8             2.8771     3.6051    -0.0705 N.am    
   9 C9             1.5372     3.4851    -0.0715 C.2     
  10 C10            3.5950     4.8815    -0.0330 C.3     
  11 C11            3.8388     5.3624    -1.4403 C.ar    
  12 C12            2.9037     6.1728    -2.0697 C.ar    
  13 C13            3.1319     6.6140    -3.3671 C.ar    
  14 C14            4.2873     6.2462    -4.0279 C.ar    
  15 C15            5.2180     5.4390    -3.4001 C.ar    
  16 C16            4.9973     5.0015    -2.1048 C.ar    
  17 N17            1.7339     6.5439    -1.3991 N.am    
  18 C18            0.6275     6.8619    -2.0999 C.2     
  19 C19           -0.6297     7.1712    -1.3930 C.ar    
  20 C20           -1.7827     7.5024    -2.1176 C.ar    
  21 C21           -2.9593     7.7915    -1.4425 C.ar    
  22 C22           -2.9930     7.7527    -0.0628 C.ar    
  23 C23           -1.8554     7.4257     0.6572 C.ar    
  24 C24           -0.6794     7.1301     0.0027 C.ar    
  25 O25            0.7432     4.4037    -0.0425 O.2     
  26 O26            4.6686     2.1979    -0.1164 O.2     
  27 F27            5.9084     4.2129    -1.4939 F       
  28 O28            0.6655     6.8939    -3.3148 O.2     
  29 O29           -1.7480     7.5406    -3.4732 O.3     
  30 H30           -0.9412     1.8621    -0.1201 H       
  31 H31           -0.8967    -0.6011    -0.1907 H       
  32 H32            1.2430    -1.8035    -0.2306 H       
  33 H33            3.3715    -0.5613    -0.1973 H       
  34 H34            2.9982     5.6184     0.5045 H       
  35 H35            4.5498     4.7466     0.4753 H       
  36 H36            2.4057     7.2443    -3.8589 H       
  37 H37            4.4641     6.5891    -5.0366 H       
  38 H38            6.1208     5.1528    -3.9193 H       
  39 H39            1.7189     6.5725    -0.4297 H       
  40 H40           -3.8502     8.0475    -1.9967 H       
  41 H41           -3.9115     7.9789     0.4583 H       
  42 H42           -1.8916     7.3980     1.7363 H       
  43 H43            0.2049     6.8758     0.5681 H       
  44 H44           -1.9643     6.6982    -3.8960 H       
@<TRIPOS>BOND
   1    1    2 ar
   2    1    6 ar
   3    1   30 1
   4    2    3 ar
   5    2   31 1
   6    3    4 ar
   7    3   32 1
   8    4    5 ar
   9    4   33 1
  10    5    6 ar
  11    5    7 1
  12    6    9 1
  13    7    8 am
  14    7   26 2
  15    8    9 am
  16    8   10 1
  17    9   25 2
  18   10   11 1
  19   10   34 1
  20   10   35 1
  21   11   12 ar
  22   11   16 ar
  23   12   13 ar
  24   12   17 1
  25   13   14 ar
  26   13   36 1
  27   14   15 ar
  28   14   37 1
  29   15   16 ar
  30   15   38 1
  31   16   27 1
  32   17   18 am
  33   17   39 1
  34   18   19 1
  35   18   28 2
  36   19   20 ar
  37   19   24 ar
  38   20   21 ar
  39   20   29 1
  40   21   22 ar
  41   21   40 1
  42   22   23 ar
  43   22   41 1
  44   23   24 ar
  45   23   42 1
  46   24   43 1
  47   29   44 1

#	End of record

