#	Name: ASD01870679
#	Creating user name:	WinNT
#	Creation time:	15. 06. 2019 19:39

#	Modifying user name:	WinNT
#	Modification time:	15. 06. 2019 19:39

#	Program:	/corina/corina34_cracker 3.40 0067  02.08.2006

@<TRIPOS>MOLECULE
ASD01870679
  38   41    0    0    0
SMALL
NO_CHARGES


@<TRIPOS>ATOM
   1 C1            -0.0174     1.4474     0.0142 C.2     
   2 C2             0.0021    -0.0041    -0.0008 C.2     
   3 C3             1.2283    -0.5353    -0.0717 C.2     
   4 S4             2.4387     0.6593    -0.1251 S.3     
   5 C5             1.2693     1.9672    -0.0498 C.2     
   6 C6            -1.2300    -0.8268     0.0581 C.ar    
   7 C7            -1.4323    -1.8508    -0.8659 C.ar    
   8 C8            -2.5808    -2.6137    -0.8059 C.ar    
   9 C9            -3.5302    -2.3637     0.1687 C.ar    
  10 C10           -3.3348    -1.3489     1.0881 C.ar    
  11 C11           -2.1878    -0.5830     1.0411 C.ar    
  12 N12           -1.0679     2.3086     0.0841 N.2     
  13 C13            1.4388     3.3735    -0.0448 C.2     
  14 N14            0.3426     4.1567     0.0219 N.am    
  15 C15           -0.8948     3.5944     0.0862 C.2     
  16 C16            0.4784     5.5509     0.0290 C.ar    
  17 C17            0.0293     6.2983    -1.0532 C.ar    
  18 C18            0.1611     7.6740    -1.0510 C.ar    
  19 C19            0.7401     8.3146     0.0260 C.ar    
  20 C20            1.1942     7.5729     1.1173 C.ar    
  21 C21            1.0556     6.1853     1.1176 C.ar    
  22 O22            2.5531     3.8662    -0.0994 O.2     
  23 C23            1.8152     8.2563     2.2716 C.2     
  24 C24            1.9414     9.5759     2.2712 C.2     
  25 H25            1.4262    -1.5968    -0.0923 H       
  26 H26           -0.6919    -2.0466    -1.6274 H       
  27 H27           -2.7388    -3.4071    -1.5214 H       
  28 H28           -4.4276    -2.9630     0.2116 H       
  29 H29           -4.0796    -1.1580     1.8466 H       
  30 H30           -2.0343     0.2064     1.7621 H       
  31 H31           -1.7598     4.2386     0.1428 H       
  32 H32           -0.4239     5.8024    -1.8988 H       
  33 H33           -0.1898     8.2497    -1.8947 H       
  34 H34            0.8421     9.3898     0.0238 H       
  35 H35            1.4010     5.6066     1.9615 H       
  36 H36            2.1660     7.6806     3.1153 H       
  37 H37            1.5906    10.1517     1.4275 H       
  38 H38            2.3951    10.0752     3.1146 H       
@<TRIPOS>BOND
   1    1    2 1
   2    1    5 2
   3    1   12 1
   4    2    3 2
   5    2    6 1
   6    3    4 1
   7    3   25 1
   8    4    5 1
   9    5   13 1
  10    6    7 ar
  11    6   11 ar
  12    7    8 ar
  13    7   26 1
  14    8    9 ar
  15    8   27 1
  16    9   10 ar
  17    9   28 1
  18   10   11 ar
  19   10   29 1
  20   11   30 1
  21   12   15 2
  22   13   14 am
  23   13   22 2
  24   14   15 1
  25   14   16 1
  26   15   31 1
  27   16   17 ar
  28   16   21 ar
  29   17   18 ar
  30   17   32 1
  31   18   19 ar
  32   18   33 1
  33   19   20 ar
  34   19   34 1
  35   20   21 ar
  36   20   23 1
  37   21   35 1
  38   23   24 2
  39   23   36 1
  40   24   37 1
  41   24   38 1

#	End of record

