#	Name: ASD04912001
#	Creating user name:	WinNT
#	Creation time:	15. 06. 2019 20:56

#	Modifying user name:	WinNT
#	Modification time:	15. 06. 2019 20:56

#	Program:	/corina/corina34_cracker 3.40 0067  02.08.2006

@<TRIPOS>MOLECULE
ASD04912001
  49   52    0    0    0
SMALL
NO_CHARGES


@<TRIPOS>ATOM
   1 C1            -0.0167     1.3780     0.0096 C.ar    
   2 C2             0.0021    -0.0041     0.0020 C.ar    
   3 C3             1.2100    -0.6820    -0.0132 C.ar    
   4 C4             2.4099     0.0366    -0.0208 C.ar    
   5 C5             2.3803     1.4299    -0.0131 C.ar    
   6 C6             1.1691     2.0929     0.0021 C.ar    
   7 Br7            1.1298     3.9834     0.0127 Br      
   8 O8             1.2291    -2.0407    -0.0202 O.3     
   9 C9            -0.0348    -2.7073    -0.0112 C.3     
  10 C10            0.1870    -4.2212    -0.0210 C.3     
  11 C11           -1.1663    -4.9349    -0.0114 C.3     
  12 C12            3.7068    -0.6803    -0.0366 C.2     
  13 C13            4.6809    -0.6717     0.9819 C.2     
  14 C14            5.7157    -1.4558     0.5699 C.2     
  15 N15            5.4219    -1.9547    -0.6722 N.pl3   
  16 C16            4.1882    -1.4912    -1.0543 C.2     
  17 C17            6.9513    -1.7237     1.3356 C.ar    
  18 C18            7.9421    -2.5490     0.8007 C.ar    
  19 C19            9.0931    -2.7949     1.5198 C.ar    
  20 C20            9.2668    -2.2254     2.7701 C.ar    
  21 C21            8.2873    -1.4063     3.3061 C.ar    
  22 C22            7.1347    -1.1479     2.5940 C.ar    
  23 Cl23          10.7180    -2.5401     3.6693 Cl      
  24 C24            3.5014    -1.7929    -2.3234 C.ar    
  25 C25            3.4573    -3.1011    -2.8260 C.ar    
  26 C26            2.8042    -3.3373    -4.0164 C.ar    
  27 N27            2.2264    -2.3531    -4.6799 N.ar    
  28 C28            2.2438    -1.1075    -4.2433 C.ar    
  29 C29            2.8689    -0.7808    -3.0592 C.ar    
  30 H30           -0.9606     1.9027     0.0169 H       
  31 H31           -0.9262    -0.5561     0.0083 H       
  32 H32            3.3035     1.9904    -0.0186 H       
  33 H33           -0.5872    -2.4268     0.8856 H       
  34 H34           -0.6046    -2.4179    -0.8942 H       
  35 H35            0.7393    -4.5017    -0.9179 H       
  36 H36            0.7567    -4.5106     0.8620 H       
  37 H37           -1.7187    -4.6544     0.8855 H       
  38 H38           -1.7361    -4.6455    -0.8944 H       
  39 H39           -1.0083    -6.0134    -0.0184 H       
  40 H40            4.6183    -0.1394     1.9195 H       
  41 H41            5.9907    -2.5423    -1.1937 H       
  42 H42            7.8074    -2.9943    -0.1740 H       
  43 H43            9.8603    -3.4332     1.1071 H       
  44 H44            8.4282    -0.9652     4.2818 H       
  45 H45            6.3715    -0.5089     3.0130 H       
  46 H46            3.9281    -3.9112    -2.2888 H       
  47 H47            2.7649    -4.3414    -4.4121 H       
  48 H48            1.7578    -0.3343    -4.8198 H       
  49 H49            2.8788     0.2405    -2.7080 H       
@<TRIPOS>BOND
   1    1    2 ar
   2    1    6 ar
   3    1   30 1
   4    2    3 ar
   5    2   31 1
   6    3    4 ar
   7    3    8 1
   8    4    5 ar
   9    4   12 1
  10    5    6 ar
  11    5   32 1
  12    6    7 1
  13    8    9 1
  14    9   10 1
  15    9   33 1
  16    9   34 1
  17   10   11 1
  18   10   35 1
  19   10   36 1
  20   11   37 1
  21   11   38 1
  22   11   39 1
  23   12   13 1
  24   12   16 2
  25   13   14 2
  26   13   40 1
  27   14   15 1
  28   14   17 1
  29   15   16 1
  30   15   41 1
  31   16   24 1
  32   17   18 ar
  33   17   22 ar
  34   18   19 ar
  35   18   42 1
  36   19   20 ar
  37   19   43 1
  38   20   21 ar
  39   20   23 1
  40   21   22 ar
  41   21   44 1
  42   22   45 1
  43   24   25 ar
  44   24   29 ar
  45   25   26 ar
  46   25   46 1
  47   26   27 ar
  48   26   47 1
  49   27   28 ar
  50   28   29 ar
  51   28   48 1
  52   29   49 1

#	End of record

