#	Name: ASD01910300
#	Creating user name:	WinNT
#	Creation time:	15. 06. 2019 19:55

#	Modifying user name:	WinNT
#	Modification time:	15. 06. 2019 19:55

#	Program:	/corina/corina34_cracker 3.40 0067  02.08.2006

@<TRIPOS>MOLECULE
ASD01910300
  43   46    0    0    0
SMALL
NO_CHARGES


@<TRIPOS>ATOM
   1 C1            -0.6250     2.2464     0.1818 C.ar    
   2 C2            -0.7463     0.8701     0.2448 C.ar    
   3 C3             0.3831     0.0726     0.2868 C.ar    
   4 C4             1.6379     0.6472     0.2665 C.ar    
   5 C5             1.7657     2.0329     0.2031 C.ar    
   6 C6             0.6250     2.8314     0.1606 C.ar    
   7 C7             3.1128     2.6566     0.1815 C.2     
   8 N8             3.3828     3.9454     0.1233 N.2     
   9 N9             4.6644     4.0803     0.1239 N.pl3   
  10 N10            5.2149     2.9180     0.1806 N.2     
  11 N11            4.2911     2.0188     0.2232 N.2     
  12 C12            5.3823     5.3561     0.0680 C.3     
  13 C13            6.2546     5.5065     1.3164 C.3     
  14 C14            6.9798     6.8535     1.2749 C.3     
  15 C15            7.8877     6.9023     0.0419 C.3     
  16 N16            7.0804     6.6145    -1.1515 N.am    
  17 C17            6.2721     5.3879    -1.1786 C.3     
  18 C18            7.0814     7.4596    -2.2014 C.2     
  19 C19            6.3696     7.0952    -3.4435 C.ar    
  20 O20            7.6679     8.5217    -2.1262 O.2     
  21 C21            5.6249     8.0481    -4.1391 C.ar    
  22 N22            4.9899     7.7247    -5.2466 N.ar    
  23 C23            5.0302     6.4999    -5.7411 C.ar    
  24 C24            5.7495     5.4965    -5.1077 C.ar    
  25 C25            6.4365     5.7883    -3.9452 C.ar    
  26 F26            4.3604     6.2203    -6.8805 F       
  27 H27           -1.5100     2.8644     0.1447 H       
  28 H28           -1.7262     0.4164     0.2616 H       
  29 H29            0.2829    -1.0016     0.3360 H       
  30 H30            2.5190     0.0237     0.3001 H       
  31 H31            0.7186     3.9062     0.1110 H       
  32 H32            4.6649     6.1756     0.0246 H       
  33 H33            5.6266     5.4595     2.2061 H       
  34 H34            6.9876     4.7003     1.3466 H       
  35 H35            6.2478     7.6592     1.2197 H       
  36 H36            7.5827     6.9701     2.1754 H       
  37 H37            8.3303     7.8944    -0.0469 H       
  38 H38            8.6758     6.1556     0.1387 H       
  39 H39            6.9285     4.5177    -1.1814 H       
  40 H40            5.6487     5.3808    -2.0727 H       
  41 H41            5.5683     9.0599    -3.7658 H       
  42 H42            5.7751     4.4991    -5.5212 H       
  43 H43            7.0046     5.0266    -3.4318 H       
@<TRIPOS>BOND
   1    1    2 ar
   2    1    6 ar
   3    1   27 1
   4    2    3 ar
   5    2   28 1
   6    3    4 ar
   7    3   29 1
   8    4    5 ar
   9    4   30 1
  10    5    6 ar
  11    5    7 1
  12    6   31 1
  13    7    8 2
  14    7   11 1
  15    8    9 1
  16    9   10 1
  17    9   12 1
  18   10   11 2
  19   12   13 1
  20   12   17 1
  21   12   32 1
  22   13   14 1
  23   13   33 1
  24   13   34 1
  25   14   15 1
  26   14   35 1
  27   14   36 1
  28   15   16 1
  29   15   37 1
  30   15   38 1
  31   16   17 1
  32   16   18 am
  33   17   39 1
  34   17   40 1
  35   18   19 1
  36   18   20 2
  37   19   21 ar
  38   19   25 ar
  39   21   22 ar
  40   21   41 1
  41   22   23 ar
  42   23   24 ar
  43   23   26 1
  44   24   25 ar
  45   24   42 1
  46   25   43 1

#	End of record

