#	Name: ASD01140387
#	Creating user name:	WinNT
#	Creation time:	15. 06. 2019 19:00

#	Modifying user name:	WinNT
#	Modification time:	15. 06. 2019 19:00

#	Program:	/corina/corina34_cracker 3.40 0067  02.08.2006

@<TRIPOS>MOLECULE
ASD01140387
  44   47    0    0    0
SMALL
NO_CHARGES


@<TRIPOS>ATOM
   1 S1            -0.0218     1.7597     0.0117 S.3     
   2 C2             0.0021    -0.0041     0.0020 C.2     
   3 N3             1.2503    -0.3826    -0.0119 N.2     
   4 N4             2.1146     0.5377    -0.0152 N.2     
   5 C5             1.6909     1.7653    -0.0046 C.2     
   6 O6             2.4758     2.8705    -0.0069 O.3     
   7 C7             6.0929     3.6688    -0.6241 C.3     
   8 C8             4.5689     3.8286    -0.7444 C.3     
   9 C9             3.8895     2.6621    -0.0213 C.3     
  10 C10            4.4062     2.5744     1.4176 C.3     
  11 C11            5.9413     2.4996     1.3913 C.3     
  12 C12            6.3450     1.4350     0.3453 C.3     
  13 C13            6.4452     2.2076    -0.9865 C.3     
  14 N14            6.4353     3.7801     0.8188 N.3     
  15 C15            7.8858     3.9160     1.0067 C.3     
  16 C16           -1.1792    -0.8928     0.0093 C.ar    
  17 C17           -1.0123    -2.2787     0.0001 C.ar    
  18 C18           -2.1164    -3.1040     0.0074 C.ar    
  19 C19           -3.3933    -2.5586     0.0238 C.ar    
  20 C20           -3.5635    -1.1804     0.0329 C.ar    
  21 C21           -2.4644    -0.3483     0.0311 C.ar    
  22 O22           -4.4790    -3.3754     0.0305 O.3     
  23 C23           -5.7628    -2.7480     0.0474 C.3     
  24 H24            6.6311     4.3878    -1.2417 H       
  25 H25            4.2633     4.7695    -0.2868 H       
  26 H26            4.2830     3.8223    -1.7962 H       
  27 H27            4.1135     1.7319    -0.5435 H       
  28 H28            4.0933     3.4589     1.9724 H       
  29 H29            4.0052     1.6807     1.8956 H       
  30 H30            6.3589     2.2891     2.3758 H       
  31 H31            7.3091     0.9966     0.6029 H       
  32 H32            5.5809     0.6606     0.2779 H       
  33 H33            5.7305     1.8130    -1.7087 H       
  34 H34            7.4586     2.1491    -1.3836 H       
  35 H35            8.2363     4.8118     0.4942 H       
  36 H36            8.1085     3.9955     2.0708 H       
  37 H37            8.3891     3.0413     0.5947 H       
  38 H38           -0.0195    -2.7037    -0.0130 H       
  39 H39           -1.9881    -4.1764     0.0000 H       
  40 H40           -4.5582    -0.7600     0.0453 H       
  41 H41           -2.5975     0.7234     0.0423 H       
  42 H42           -5.8543    -2.1319     0.9419 H       
  43 H43           -5.8729    -2.1218    -0.8379 H       
  44 H44           -6.5404    -3.5118     0.0512 H       
@<TRIPOS>BOND
   1    1    2 1
   2    1    5 1
   3    2    3 2
   4    2   16 1
   5    3    4 1
   6    4    5 2
   7    5    6 1
   8    6    9 1
   9    7    8 1
  10    7   13 1
  11    7   14 1
  12    7   24 1
  13    8    9 1
  14    8   25 1
  15    8   26 1
  16    9   10 1
  17    9   27 1
  18   10   11 1
  19   10   28 1
  20   10   29 1
  21   11   12 1
  22   11   14 1
  23   11   30 1
  24   12   13 1
  25   12   31 1
  26   12   32 1
  27   13   33 1
  28   13   34 1
  29   14   15 1
  30   15   35 1
  31   15   36 1
  32   15   37 1
  33   16   17 ar
  34   16   21 ar
  35   17   18 ar
  36   17   38 1
  37   18   19 ar
  38   18   39 1
  39   19   20 ar
  40   19   22 1
  41   20   21 ar
  42   20   40 1
  43   21   41 1
  44   22   23 1
  45   23   42 1
  46   23   43 1
  47   23   44 1

#	End of record

