#	Name: ASD01028159
#	Creating user name:	WinNT
#	Creation time:	15. 06. 2019 18:56

#	Modifying user name:	WinNT
#	Modification time:	15. 06. 2019 18:56

#	Program:	/corina/corina34_cracker 3.40 0067  02.08.2006

@<TRIPOS>MOLECULE
ASD01028159
  58   61    0    0    0
SMALL
NO_CHARGES


@<TRIPOS>ATOM
   1 C1             1.8894    -2.2423     1.3995 C.ar    
   2 C2             0.9444    -1.5994     0.5811 C.ar    
   3 C3             1.3248    -0.4408    -0.1054 C.ar    
   4 C4             2.6193     0.0220     0.0529 C.ar    
   5 C5             3.4928    -0.6655     0.8762 C.ar    
   6 N6             3.1153    -1.7558     1.5148 N.ar    
   7 C7            -0.4220    -2.1362     0.4480 C.2     
   8 O8            -0.7091    -3.2017     0.9590 O.2     
   9 N9            -1.3530    -1.4461    -0.2399 N.am    
  10 C10           -2.6167    -2.0037    -0.4590 C.ar    
  11 C11           -3.7383    -1.1871    -0.5044 C.ar    
  12 C12           -4.9888    -1.7435    -0.7217 C.ar    
  13 C13           -5.1171    -3.1149    -0.8933 C.ar    
  14 C14           -3.9996    -3.9263    -0.8477 C.ar    
  15 C15           -2.7504    -3.3748    -0.6371 C.ar    
  16 C16           -4.1428    -5.4148    -1.0344 C.3     
  17 F17           -5.4903    -5.7319    -1.2365 F       
  18 F18           -3.3967    -5.8192    -2.1466 F       
  19 F19           -3.6743    -6.0751     0.1065 F       
  20 O20           -6.0889    -0.9469    -0.7663 O.3     
  21 C21           -5.8827     0.4550    -0.5812 C.3     
  22 N22           -8.0932     0.8014     0.4805 N.3     
  23 C23           -7.2257     1.1833    -0.6635 C.3     
  24 C24           -7.0232     2.7057    -0.5068 C.3     
  25 C25           -8.2350     3.1886     0.3166 C.3     
  26 C26           -9.0678     1.9174     0.5880 C.3     
  27 N27            1.5351    -3.3853     2.0921 N.pl3   
  28 C28            2.5472    -4.1271     2.8480 C.3     
  29 C29            1.2489    -7.6172     3.4861 C.ar    
  30 C30            1.8435    -6.5432     2.8514 C.ar    
  31 C31            1.9071    -5.3224     3.5057 C.ar    
  32 C32            1.3682    -5.2276     4.7797 C.ar    
  33 C33            0.7896    -6.3452     5.3510 C.ar    
  34 N34            0.7465    -7.4905     4.6988 N.ar    
  35 H35            0.6255     0.0792    -0.7432 H       
  36 H36            2.9453     0.9131    -0.4629 H       
  37 H37            4.5027    -0.3025     0.9983 H       
  38 H38           -1.1467    -0.5626    -0.5831 H       
  39 H39           -3.6367    -0.1203    -0.3704 H       
  40 H40           -6.0917    -3.5485    -1.0622 H       
  41 H41           -1.8779    -4.0106    -0.6067 H       
  42 H42           -5.4337     0.6303     0.3964 H       
  43 H43           -5.2177     0.8303    -1.3590 H       
  44 H44           -8.5634    -0.0733     0.3015 H       
  45 H45           -7.7224     0.9611    -1.6080 H       
  46 H46           -6.0959     2.9112     0.0281 H       
  47 H47           -7.0126     3.1888    -1.4838 H       
  48 H48           -7.9026     3.6312     1.2556 H       
  49 H49           -8.8192     3.9088    -0.2564 H       
  50 H50           -9.8528     1.8101    -0.1606 H       
  51 H51           -9.4980     1.9513     1.5890 H       
  52 H52            0.6163    -3.6961     2.0774 H       
  53 H53            3.3330    -4.4624     2.1710 H       
  54 H54            2.9775    -3.4793     3.6117 H       
  55 H55            1.1913    -8.5704     2.9815 H       
  56 H56            2.2534    -6.6534     1.8584 H       
  57 H57            1.4004    -4.2924     5.3189 H       
  58 H58            0.3676    -6.2796     6.3430 H       
@<TRIPOS>BOND
   1    1    2 ar
   2    1    6 ar
   3    1   27 1
   4    2    3 ar
   5    2    7 1
   6    3    4 ar
   7    3   35 1
   8    4    5 ar
   9    4   36 1
  10    5    6 ar
  11    5   37 1
  12    7    8 2
  13    7    9 am
  14    9   10 1
  15    9   38 1
  16   10   11 ar
  17   10   15 ar
  18   11   12 ar
  19   11   39 1
  20   12   13 ar
  21   12   20 1
  22   13   14 ar
  23   13   40 1
  24   14   15 ar
  25   14   16 1
  26   15   41 1
  27   16   17 1
  28   16   18 1
  29   16   19 1
  30   20   21 1
  31   21   23 1
  32   21   42 1
  33   21   43 1
  34   22   23 1
  35   22   26 1
  36   22   44 1
  37   23   24 1
  38   23   45 1
  39   24   25 1
  40   24   46 1
  41   24   47 1
  42   25   26 1
  43   25   48 1
  44   25   49 1
  45   26   50 1
  46   26   51 1
  47   27   28 1
  48   27   52 1
  49   28   31 1
  50   28   53 1
  51   28   54 1
  52   29   30 ar
  53   29   34 ar
  54   29   55 1
  55   30   31 ar
  56   30   56 1
  57   31   32 ar
  58   32   33 ar
  59   32   57 1
  60   33   34 ar
  61   33   58 1

#	End of record

