#	Name: ASD01940119
#	Creating user name:	WinNT
#	Creation time:	15. 06. 2019 20:11

#	Modifying user name:	WinNT
#	Modification time:	15. 06. 2019 20:11

#	Program:	/corina/corina34_cracker 3.40 0067  02.08.2006

@<TRIPOS>MOLECULE
ASD01940119
  36   37    0    0    0
SMALL
NO_CHARGES


@<TRIPOS>ATOM
   1 F1             1.9032     1.5962     2.2855 F       
   2 C2             1.0646     2.1495     1.3823 C.ar    
   3 C3             1.3888     2.1337     0.0321 C.ar    
   4 C4             0.5201     2.7055    -0.8961 C.ar    
   5 C5            -0.6635     3.2873    -0.4673 C.ar    
   6 C6            -0.9809     3.3005     0.8785 C.ar    
   7 C7            -0.1225     2.7282     1.8018 C.ar    
   8 N8             2.5864     1.5450    -0.3961 N.pl3   
   9 N9             0.8424     2.6928    -2.2598 N.am    
  10 C10            2.6330     0.1717    -0.6706 C.ar    
  11 C11            1.4773    -0.5923    -0.5875 C.ar    
  12 C12            1.5227    -1.9462    -0.8580 C.ar    
  13 C13            2.7249    -2.5442    -1.2133 C.ar    
  14 C14            3.8829    -1.7805    -1.2968 C.ar    
  15 C15            3.8367    -0.4251    -1.0319 C.ar    
  16 F16            4.9620     0.3181    -1.1129 F       
  17 F17           -0.4403     2.7389     3.1148 F       
  18 S18            0.4258     3.9754    -3.2210 S.o2    
  19 C19            1.2772     5.3939    -2.4771 C.3     
  20 O20            0.9906     3.6626    -4.4869 O.2     
  21 O21           -0.9805     4.0950    -3.0556 O.2     
  22 S22            2.7819    -4.2713    -1.5575 S.3     
  23 C23            4.5286    -4.5498    -1.9599 C.3     
  24 H24           -1.3377     3.7307    -1.1850 H       
  25 H25           -1.9031     3.7545     1.2098 H       
  26 H26            3.3830     2.0881    -0.5025 H       
  27 H27            1.3095     1.9328    -2.6408 H       
  28 H28            0.5421    -0.1282    -0.3110 H       
  29 H29            0.6230    -2.5401    -0.7928 H       
  30 H30            4.8178    -2.2454    -1.5730 H       
  31 H31            2.3524     5.2151    -2.4807 H       
  32 H32            1.0564     6.2929    -3.0527 H       
  33 H33            0.9343     5.5262    -1.4509 H       
  34 H34            4.8044    -3.9416    -2.8213 H       
  35 H35            5.1469    -4.2721    -1.1062 H       
  36 H36            4.6841    -5.6030    -2.1939 H       
@<TRIPOS>BOND
   1    1    2 1
   2    2    3 ar
   3    2    7 ar
   4    3    4 ar
   5    3    8 1
   6    4    5 ar
   7    4    9 1
   8    5    6 ar
   9    5   24 1
  10    6    7 ar
  11    6   25 1
  12    7   17 1
  13    8   10 1
  14    8   26 1
  15    9   18 am
  16    9   27 1
  17   10   11 ar
  18   10   15 ar
  19   11   12 ar
  20   11   28 1
  21   12   13 ar
  22   12   29 1
  23   13   14 ar
  24   13   22 1
  25   14   15 ar
  26   14   30 1
  27   15   16 1
  28   18   19 1
  29   18   20 2
  30   18   21 2
  31   19   31 1
  32   19   32 1
  33   19   33 1
  34   22   23 1
  35   23   34 1
  36   23   35 1
  37   23   36 1

#	End of record

