#	Name: ASD03250030
#	Creating user name:	WinNT
#	Creation time:	15. 06. 2019 20:35

#	Modifying user name:	WinNT
#	Modification time:	15. 06. 2019 20:35

#	Program:	/corina/corina34_cracker 3.40 0067  02.08.2006

@<TRIPOS>MOLECULE
ASD03250030
  75   80    0    0    0
SMALL
NO_CHARGES


@<TRIPOS>ATOM
   1 N1             0.3505     1.1928     0.9293 N.2     
   2 C2             0.3706    -0.1058     0.7596 C.2     
   3 C3             1.2176    -0.6876    -0.2094 C.2     
   4 N4             2.0095     0.1036    -0.9636 N.am    
   5 C5             1.9743     1.4575    -0.7722 C.2     
   6 C6             1.1261     1.9927     0.1935 C.2     
   7 C7             1.0835     3.4584     0.4055 C.ar    
   8 C8            -0.1406     4.1256     0.4393 C.ar    
   9 C9            -0.1739     5.4907     0.6376 C.ar    
  10 C10            1.0039     6.1974     0.8027 C.ar    
  11 C11            2.2213     5.5412     0.7697 C.ar    
  12 C12            2.2671     4.1755     0.5778 C.ar    
  13 C13            2.8299     2.3444    -1.5828 C.ar    
  14 C14            4.1941     2.0728    -1.7175 C.ar    
  15 C15            4.9879     2.9065    -2.4769 C.ar    
  16 C16            4.4366     4.0098    -3.1047 C.ar    
  17 C17            3.0866     4.2853    -2.9754 C.ar    
  18 C18            2.2792     3.4570    -2.2243 C.ar    
  19 C19            0.9606     7.6882     1.0189 C.3     
  20 N20            0.8750     7.9721     2.4577 N.3     
  21 C21           -0.1272     7.1154     3.1044 C.3     
  22 C22            0.5933     9.3931     2.6978 C.3     
  23 C23            0.6553     9.6801     4.1998 C.3     
  24 C24           -0.3732     8.8071     4.9241 C.3     
  25 C25           -0.0867     7.3344     4.6184 C.3     
  26 N26           -0.2784     9.0348     6.3682 N.am    
  27 C27           -1.3006     9.5078     7.1877 C.ar    
  28 N28            0.5380     9.1349     8.4102 N.am    
  29 C29            0.8099     8.8172     7.1304 C.2     
  30 C30           -2.6134     9.8853     6.9497 C.ar    
  31 C31           -3.4025    10.3247     7.9944 C.ar    
  32 C32           -2.8884    10.3899     9.2782 C.ar    
  33 C33           -1.5820    10.0160     9.5250 C.ar    
  34 C34           -0.7820     9.5735     8.4825 C.ar    
  35 O35            1.8771     8.3965     6.7243 O.2     
  36 O36            1.2336    -1.8974    -0.3635 O.2     
  37 C37           -0.5154    -0.9849     1.6041 C.3     
  38 C38           -1.3262    -0.1162     2.5679 C.3     
  39 C39           -2.3147    -0.9945     3.3375 C.3     
  40 C40           -0.3797     0.5711     3.5541 C.3     
  41 H41            2.5961    -0.2830    -1.6325 H       
  42 H42           -1.0607     3.5750     0.3102 H       
  43 H43           -1.1213     6.0086     0.6636 H       
  44 H44            3.1375     6.0983     0.8988 H       
  45 H45            3.2178     3.6636     0.5571 H       
  46 H46            4.6257     1.2124    -1.2279 H       
  47 H47            6.0424     2.6982    -2.5817 H       
  48 H48            5.0631     4.6592    -3.6981 H       
  49 H49            2.6633     5.1482    -3.4678 H       
  50 H50            1.2248     3.6703    -2.1285 H       
  51 H51            1.8651     8.1407     0.6125 H       
  52 H52            0.0882     8.1034     0.5141 H       
  53 H53           -1.1183     7.3677     2.7273 H       
  54 H54            0.0905     6.0707     2.8825 H       
  55 H55            1.3343    10.0027     2.1807 H       
  56 H56           -0.4012     9.6347     2.3227 H       
  57 H57            1.6536     9.4518     4.5730 H       
  58 H58            0.4308    10.7315     4.3790 H       
  59 H59           -1.3752     9.0625     4.5792 H       
  60 H60           -0.8413     6.7099     5.0967 H       
  61 H61            0.9000     7.0691     4.9982 H       
  62 H62            1.1553     9.0671     9.1553 H       
  63 H63           -3.0178     9.8361     5.9495 H       
  64 H64           -4.4249    10.6191     7.8091 H       
  65 H65           -3.5114    10.7349    10.0901 H       
  66 H66           -1.1844    10.0682    10.5278 H       
  67 H67           -1.1943    -1.5430     0.9592 H       
  68 H68            0.1002    -1.6816     2.1731 H       
  69 H69           -1.8738     0.6387     2.0036 H       
  70 H70           -1.7671    -1.7494     3.9017 H       
  71 H71           -2.8923    -0.3756     4.0241 H       
  72 H72           -2.9890    -1.4842     2.6349 H       
  73 H73            0.3246     1.1968     3.0058 H       
  74 H74           -0.9573     1.1900     4.2407 H       
  75 H75            0.1679    -0.1837     4.1184 H       
@<TRIPOS>BOND
   1    1    2 2
   2    1    6 1
   3    2    3 1
   4    2   37 1
   5    3    4 am
   6    3   36 2
   7    4    5 1
   8    4   41 1
   9    5    6 2
  10    5   13 1
  11    6    7 1
  12    7    8 ar
  13    7   12 ar
  14    8    9 ar
  15    8   42 1
  16    9   10 ar
  17    9   43 1
  18   10   11 ar
  19   10   19 1
  20   11   12 ar
  21   11   44 1
  22   12   45 1
  23   13   14 ar
  24   13   18 ar
  25   14   15 ar
  26   14   46 1
  27   15   16 ar
  28   15   47 1
  29   16   17 ar
  30   16   48 1
  31   17   18 ar
  32   17   49 1
  33   18   50 1
  34   19   20 1
  35   19   51 1
  36   19   52 1
  37   20   22 1
  38   20   21 1
  39   21   25 1
  40   21   53 1
  41   21   54 1
  42   22   23 1
  43   22   55 1
  44   22   56 1
  45   23   24 1
  46   23   57 1
  47   23   58 1
  48   24   25 1
  49   24   26 1
  50   24   59 1
  51   25   60 1
  52   25   61 1
  53   26   27 1
  54   26   29 am
  55   27   30 ar
  56   27   34 ar
  57   28   29 am
  58   28   34 1
  59   28   62 1
  60   29   35 2
  61   30   31 ar
  62   30   63 1
  63   31   32 ar
  64   31   64 1
  65   32   33 ar
  66   32   65 1
  67   33   34 ar
  68   33   66 1
  69   37   38 1
  70   37   67 1
  71   37   68 1
  72   38   39 1
  73   38   40 1
  74   38   69 1
  75   39   70 1
  76   39   71 1
  77   39   72 1
  78   40   73 1
  79   40   74 1
  80   40   75 1

#	End of record

