#	Name: ASD03730229
#	Creating user name:	WinNT
#	Creation time:	15. 06. 2019 20:44

#	Modifying user name:	WinNT
#	Modification time:	15. 06. 2019 20:44

#	Program:	/corina/corina34_cracker 3.40 0067  02.08.2006

@<TRIPOS>MOLECULE
ASD03730229
  60   65    0    0    0
SMALL
NO_CHARGES


@<TRIPOS>ATOM
   1 O1            -0.4305     1.1718     1.1643 O.3     
   2 C2            -0.3687    -0.2653     1.2296 C.3     
   3 O3             0.7316    -0.5995     0.3631 O.3     
   4 C4             1.5567     0.4885     0.3837 C.ar    
   5 C5             0.8405     1.5782     0.8739 C.ar    
   6 C6             2.8825     0.6398     0.0199 C.ar    
   7 C7             3.5089     1.8770     0.1356 C.ar    
   8 C8             2.7797     2.9609     0.6152 C.ar    
   9 C9             1.4597     2.8116     0.9858 C.ar    
  10 O10            4.7949     2.2325    -0.1470 O.3     
  11 C11            3.7081     4.1457     0.5931 C.3     
  12 C12            4.8720     3.6644    -0.2842 C.3     
  13 N13            3.1374     6.3252     0.9762 N.am    
  14 C14            3.0516     5.3719     0.0270 C.2     
  15 C15            4.1670     4.5385     1.9655 C.ar    
  16 C16            4.8330     3.8688     2.9829 C.ar    
  17 C17            5.1229     4.5318     4.1751 C.ar    
  18 C18            4.7453     5.8504     4.3350 C.ar    
  19 C19            4.0832     6.5150     3.3228 C.ar    
  20 C20            3.7871     5.8664     2.1252 C.ar    
  21 O21            2.5439     5.4828    -1.0689 O.2     
  22 C22            2.6110     7.6836     0.8213 C.3     
  23 C23            1.1627     7.7284     1.3124 C.3     
  24 C24            0.6129     9.1470     1.1507 C.3     
  25 C25           -0.8354     9.1918     1.6418 C.3     
  26 C26           -1.3851    10.6104     1.4801 C.3     
  27 C27            6.1300     2.0940     1.7984 C.ar    
  28 C28            5.2348     2.4518     2.8027 C.ar    
  29 C29            4.7198     1.4565     3.6398 C.ar    
  30 C30            5.1237     0.1511     3.4337 C.ar    
  31 C31            6.0210    -0.1282     2.4099 C.ar    
  32 N32            6.4897     0.8367     1.6353 N.ar    
  33 O33            6.4221    -1.4073     2.2022 O.3     
  34 C34            7.3455    -1.6325     1.1351 C.3     
  35 H35           -0.1670    -0.5941     2.2491 H       
  36 H36           -1.2948    -0.7057     0.8601 H       
  37 H37            3.4355    -0.2081    -0.3563 H       
  38 H38            0.9074     3.6592     1.3640 H       
  39 H39            5.8230     4.0389     0.0947 H       
  40 H40            4.7234     3.9623    -1.3221 H       
  41 H41            5.6404     4.0158     4.9703 H       
  42 H42            4.9693     6.3646     5.2580 H       
  43 H43            3.7920     7.5460     3.4598 H       
  44 H44            3.2150     8.3763     1.4074 H       
  45 H45            2.6472     7.9696    -0.2299 H       
  46 H46            0.5587     7.0356     0.7264 H       
  47 H47            1.1265     7.4423     2.3636 H       
  48 H48            1.2169     9.8397     1.7368 H       
  49 H49            0.6492     9.4330     0.0995 H       
  50 H50           -1.4394     8.4991     1.0558 H       
  51 H51           -0.8716     8.9057     2.6930 H       
  52 H52           -2.4170    10.6423     1.8299 H       
  53 H53           -0.7812    11.3031     2.0661 H       
  54 H54           -1.3489    10.8965     0.4289 H       
  55 H55            6.5304     2.8538     1.1436 H       
  56 H56            4.0238     1.7022     4.4281 H       
  57 H57            4.7466    -0.6429     4.0612 H       
  58 H58            7.5830    -2.6948     1.0782 H       
  59 H59            6.8998    -1.3089     0.1945 H       
  60 H60            8.2582    -1.0655     1.3187 H       
@<TRIPOS>BOND
   1    1    2 1
   2    1    5 1
   3    2    3 1
   4    2   35 1
   5    2   36 1
   6    3    4 1
   7    4    5 ar
   8    4    6 ar
   9    5    9 ar
  10    6    7 ar
  11    6   37 1
  12    7    8 ar
  13    7   10 1
  14    8    9 ar
  15    8   11 1
  16    9   38 1
  17   10   12 1
  18   11   12 1
  19   11   14 1
  20   11   15 1
  21   12   39 1
  22   12   40 1
  23   13   14 am
  24   13   20 1
  25   13   22 1
  26   14   21 2
  27   15   16 ar
  28   15   20 ar
  29   16   17 ar
  30   16   28 1
  31   17   18 ar
  32   17   41 1
  33   18   19 ar
  34   18   42 1
  35   19   20 ar
  36   19   43 1
  37   22   23 1
  38   22   44 1
  39   22   45 1
  40   23   24 1
  41   23   46 1
  42   23   47 1
  43   24   25 1
  44   24   48 1
  45   24   49 1
  46   25   26 1
  47   25   50 1
  48   25   51 1
  49   26   52 1
  50   26   53 1
  51   26   54 1
  52   27   28 ar
  53   27   32 ar
  54   27   55 1
  55   28   29 ar
  56   29   30 ar
  57   29   56 1
  58   30   31 ar
  59   30   57 1
  60   31   32 ar
  61   31   33 1
  62   33   34 1
  63   34   58 1
  64   34   59 1
  65   34   60 1

#	End of record

