#	Name: ASD01948164
#	Creating user name:	WinNT
#	Creation time:	15. 06. 2019 20:13

#	Modifying user name:	WinNT
#	Modification time:	15. 06. 2019 20:13

#	Program:	/corina/corina34_cracker 3.40 0067  02.08.2006

@<TRIPOS>MOLECULE
ASD01948164
  35   37    0    0    0
SMALL
NO_CHARGES


@<TRIPOS>ATOM
   1 C1             1.8310     1.3944     1.0515 C.ar    
   2 C2             1.8191     0.0032     1.0460 C.ar    
   3 C3             2.4002    -0.6968     2.0942 C.ar    
   4 C4             2.9884    -0.0110     3.1397 C.ar    
   5 C5             2.9988     1.3719     3.1436 C.ar    
   6 C6             2.4263     2.0742     2.0978 C.ar    
   7 N7             1.2223    -0.6887    -0.0137 N.pl3   
   8 C8             3.8101    -1.9708    -0.4378 C.2     
   9 C9             2.6134    -2.7149    -0.2953 C.2     
  10 C10            1.3226    -2.0637    -0.0838 C.2     
  11 N11            4.9612    -2.6526    -0.6366 N.am    
  12 F12            1.2665     2.0799     0.0333 F       
  13 C13            2.6722    -4.1155    -0.3599 C.2     
  14 N14            1.5258    -4.8480    -0.2247 N.am    
  15 C15            0.3346    -4.2581    -0.0299 C.2     
  16 C16            0.2016    -2.8694     0.0449 C.2     
  17 C17            4.9524    -4.0073    -0.6953 C.2     
  18 N18            3.8557    -4.7092    -0.5542 N.2     
  19 O19            3.8021    -0.7535    -0.3878 O.2     
  20 C20            1.5979    -6.3096    -0.2942 C.3     
  21 O21           -0.6602    -4.9556     0.0850 O.2     
  22 I22            3.8911     2.4058     4.7322 I       
  23 C23            6.2230    -1.9242    -0.7899 C.3     
  24 F24            6.1198    -4.6574    -0.8951 F       
  25 H25            2.3922    -1.7768     2.0929 H       
  26 H26            3.4405    -0.5558     3.9553 H       
  27 H27            2.4363     3.1541     2.1034 H       
  28 H28            0.7381    -0.2022    -0.6991 H       
  29 H29           -0.7702    -2.4254     0.2027 H       
  30 H30            1.7619    -6.7132     0.7050 H       
  31 H31            0.6628    -6.7008    -0.6950 H       
  32 H32            2.4225    -6.6022    -0.9441 H       
  33 H33            6.6850    -1.7881     0.1879 H       
  34 H34            6.8948    -2.4925    -1.4332 H       
  35 H35            6.0281    -0.9500    -1.2383 H       
@<TRIPOS>BOND
   1    1    2 ar
   2    1   12 1
   3    1    6 ar
   4    2    3 ar
   5    2    7 1
   6    3    4 ar
   7    3   25 1
   8    4    5 ar
   9    4   26 1
  10    5    6 ar
  11    5   22 1
  12    6   27 1
  13    7   10 1
  14    7   28 1
  15    8    9 1
  16    8   19 2
  17    8   11 am
  18    9   10 1
  19    9   13 2
  20   10   16 2
  21   11   17 1
  22   11   23 1
  23   13   14 1
  24   13   18 1
  25   14   15 am
  26   14   20 1
  27   15   16 1
  28   15   21 2
  29   16   29 1
  30   17   18 2
  31   17   24 1
  32   20   30 1
  33   20   31 1
  34   20   32 1
  35   23   33 1
  36   23   34 1
  37   23   35 1

#	End of record

