#	Name: ASD08170510
#	Creating user name:	WinNT
#	Creation time:	15. 06. 2019 21:17

#	Modifying user name:	WinNT
#	Modification time:	15. 06. 2019 21:17

#	Program:	/corina/corina34_cracker 3.40 0067  02.08.2006

@<TRIPOS>MOLECULE
ASD08170510
  67   70    0    0    0
SMALL
NO_CHARGES


@<TRIPOS>ATOM
   1 N1            -3.1575     2.6331    -0.1864 N.ar    
   2 C2            -3.0942     1.3188    -0.1006 C.ar    
   3 C3            -4.3614     0.5040    -0.0674 C.3     
   4 C4            -7.4368     0.6651     2.2439 C.3     
   5 C5            -8.7041    -0.1498     2.2771 C.2     
   6 N6            -8.8922    -1.2426     2.9464 N.2     
   7 N7           -10.0302    -1.7794     2.8430 N.2     
   8 C8           -10.9057    -1.1952     2.0818 C.2     
   9 S9           -10.2001     0.2175     1.4176 S.3     
  10 N10          -12.2027    -1.6398     1.8491 N.am    
  11 C11           -6.5424     0.1709     1.1051 C.3     
  12 C12           -5.2558     0.9982     1.0714 C.3     
  13 C13           -1.8609     0.6862    -0.0415 C.ar    
  14 C14           -0.7214     1.4754    -0.0755 C.ar    
  15 C15           -0.8864     2.8561    -0.1670 C.ar    
  16 N16           -2.1066     3.3692    -0.2183 N.ar    
  17 N17            0.2278     3.6937    -0.2041 N.am    
  18 C18          -12.6441    -2.7687     2.4384 C.2     
  19 O19          -11.8841    -3.4453     3.0983 O.2     
  20 C20          -14.0820    -3.1901     2.2774 C.3     
  21 C21            0.0696     5.0172    -0.4040 C.2     
  22 C22            1.2621     5.9364    -0.3419 C.3     
  23 O23           -1.0325     5.4682    -0.6337 O.2     
  24 C24            0.8179     7.3535    -0.5983 C.ar    
  25 C25            0.7897     7.8461    -1.8896 C.ar    
  26 C26            0.4332     8.1589     0.4573 C.ar    
  27 C27          -14.3386    -3.5619     0.8397 C.ar    
  28 C28          -13.8437    -4.7492     0.3341 C.ar    
  29 C29          -14.0790    -5.0902    -0.9849 C.ar    
  30 C30          -14.8096    -4.2441    -1.7978 C.ar    
  31 C31          -15.3053    -3.0568    -1.2917 C.ar    
  32 C32          -15.0738    -2.7179     0.0281 C.ar    
  33 C33            0.0258     9.4588     0.2221 C.ar    
  34 C34            0.0035     9.9533    -1.0686 C.ar    
  35 C35            0.3822     9.1459    -2.1248 C.ar    
  36 O36          -14.3445    -4.3177     3.1151 O.3     
  37 C37          -15.6142    -1.4238     0.5797 C.3     
  38 N38          -14.5231    -0.4469     0.6944 N.3     
  39 H39           -4.8878     0.6118    -1.0158 H       
  40 H40           -4.1145    -0.5454     0.0939 H       
  41 H41           -7.6838     1.7145     2.0826 H       
  42 H42           -6.9105     0.5573     3.1922 H       
  43 H43          -12.7897    -1.1374     1.2626 H       
  44 H44           -6.2955    -0.8785     1.2664 H       
  45 H45           -7.0687     0.2787     0.1567 H       
  46 H46           -4.7295     0.8904     2.0198 H       
  47 H47           -5.5028     2.0475     0.9101 H       
  48 H48           -1.7906    -0.3891     0.0293 H       
  49 H49            0.2633     1.0339    -0.0320 H       
  50 H50            1.1167     3.3239    -0.0860 H       
  51 H51          -14.7362    -2.3660     2.5619 H       
  52 H52            1.7195     5.8720     0.6454 H       
  53 H53            1.9885     5.6408    -1.0989 H       
  54 H54            1.0863     7.2155    -2.7147 H       
  55 H55            0.4507     7.7725     1.4656 H       
  56 H56          -13.2729    -5.4104     0.9692 H       
  57 H57          -13.6918    -6.0177    -1.3803 H       
  58 H58          -14.9928    -4.5101    -2.8283 H       
  59 H59          -15.8759    -2.3955    -1.9269 H       
  60 H60           -0.2754    10.0878     1.0467 H       
  61 H61           -0.3152    10.9687    -1.2523 H       
  62 H62            0.3647     9.5322    -3.1331 H       
  63 H63          -13.7970    -5.0900     2.9181 H       
  64 H64          -16.3809    -1.0352    -0.0905 H       
  65 H65          -16.0479    -1.6013     1.5638 H       
  66 H66          -14.0625    -0.3134    -0.1933 H       
  67 H67          -14.8602     0.4301     1.0624 H       
@<TRIPOS>BOND
   1    1    2 ar
   2    1   16 ar
   3    2    3 1
   4    2   13 ar
   5    3   12 1
   6    3   39 1
   7    3   40 1
   8    4    5 1
   9    4   11 1
  10    4   41 1
  11    4   42 1
  12    5    6 2
  13    5    9 1
  14    6    7 1
  15    7    8 2
  16    8    9 1
  17    8   10 1
  18   10   18 am
  19   10   43 1
  20   11   12 1
  21   11   44 1
  22   11   45 1
  23   12   46 1
  24   12   47 1
  25   13   14 ar
  26   13   48 1
  27   14   15 ar
  28   14   49 1
  29   15   16 ar
  30   15   17 1
  31   17   21 am
  32   17   50 1
  33   18   19 2
  34   18   20 1
  35   20   27 1
  36   20   36 1
  37   20   51 1
  38   21   22 1
  39   21   23 2
  40   22   24 1
  41   22   52 1
  42   22   53 1
  43   24   26 ar
  44   24   25 ar
  45   25   35 ar
  46   25   54 1
  47   26   33 ar
  48   26   55 1
  49   27   28 ar
  50   27   32 ar
  51   28   29 ar
  52   28   56 1
  53   29   30 ar
  54   29   57 1
  55   30   31 ar
  56   30   58 1
  57   31   32 ar
  58   31   59 1
  59   32   37 1
  60   33   34 ar
  61   33   60 1
  62   34   35 ar
  63   34   61 1
  64   35   62 1
  65   36   63 1
  66   37   38 1
  67   37   64 1
  68   37   65 1
  69   38   66 1
  70   38   67 1

#	End of record

