#	Name: ASD04122002
#	Creating user name:	WinNT
#	Creation time:	15. 06. 2019 20:48

#	Modifying user name:	WinNT
#	Modification time:	15. 06. 2019 20:48

#	Program:	/corina/corina34_cracker 3.40 0067  02.08.2006

@<TRIPOS>MOLECULE
ASD04122002
  34   37    0    0    0
SMALL
NO_CHARGES


@<TRIPOS>ATOM
   1 C1             0.0289     2.1389     0.0313 C.ar    
   2 C2             0.4111     0.8128     0.2574 C.ar    
   3 N3            -0.5239    -0.2143     0.4549 N.pl3   
   4 C4            -1.7839    -0.3614    -0.0674 C.2     
   5 C5            -2.5510     0.5496    -0.8319 C.2     
   6 C6            -2.0642     1.9264    -1.1023 C.3     
   7 O7            -1.2754     2.4407    -0.0583 O.3     
   8 C8            -0.2544    -1.3066     1.2302 C.2     
   9 C9            -1.2888    -2.1755     1.1493 C.2     
  10 C10           -2.2617    -1.6065     0.3306 C.2     
  11 C11            0.9952     3.1196    -0.1245 C.ar    
  12 C12            2.3361     2.7921    -0.0723 C.ar    
  13 C13            2.7186     1.4795     0.1361 C.ar    
  14 C14            1.7646     0.4964     0.2998 C.ar    
  15 O15           -3.6261     0.1993    -1.2749 O.2     
  16 C16           -1.2468     1.9130    -2.3683 C.ar    
  17 C17           -1.2826     0.8113    -3.2024 C.ar    
  18 C18           -0.5327     0.7989    -4.3637 C.ar    
  19 C19            0.2526     1.8884    -4.6909 C.ar    
  20 C20            0.2877     2.9905    -3.8572 C.ar    
  21 C21           -0.4655     3.0046    -2.6982 C.ar    
  22 H22           -2.9236     2.5807    -1.2484 H       
  23 H23            0.6419    -1.4535     1.8146 H       
  24 H24           -1.3495    -3.1389     1.6337 H       
  25 H25           -3.2085    -2.0480     0.0568 H       
  26 H26            0.6985     4.1451    -0.2879 H       
  27 H27            3.0853     3.5605    -0.1944 H       
  28 H28            3.7672     1.2232     0.1704 H       
  29 H29            2.0712    -0.5264     0.4621 H       
  30 H30           -1.8961    -0.0400    -2.9467 H       
  31 H31           -0.5602    -0.0621    -5.0150 H       
  32 H32            0.8390     1.8785    -5.5978 H       
  33 H33            0.9015     3.8416    -4.1128 H       
  34 H34           -0.4381     3.8656    -2.0468 H       
@<TRIPOS>BOND
   1    1    2 ar
   2    1   11 ar
   3    1    7 1
   4    2    3 1
   5    2   14 ar
   6    3    8 1
   7    3    4 1
   8    4    5 1
   9    4   10 2
  10    5    6 1
  11    5   15 2
  12    6    7 1
  13    6   16 1
  14    6   22 1
  15    8    9 2
  16    8   23 1
  17    9   10 1
  18    9   24 1
  19   10   25 1
  20   11   12 ar
  21   11   26 1
  22   12   13 ar
  23   12   27 1
  24   13   14 ar
  25   13   28 1
  26   14   29 1
  27   16   17 ar
  28   16   21 ar
  29   17   18 ar
  30   17   30 1
  31   18   19 ar
  32   18   31 1
  33   19   20 ar
  34   19   32 1
  35   20   21 ar
  36   20   33 1
  37   21   34 1

#	End of record

