#	Name: ASD00238003
#	Creating user name:	WinNT
#	Creation time:	15. 06. 2019 18:33

#	Modifying user name:	WinNT
#	Modification time:	15. 06. 2019 18:33

#	Program:	/corina/corina34_cracker 3.40 0067  02.08.2006

@<TRIPOS>MOLECULE
ASD00238003
  21   20    0    0    0
SMALL
NO_CHARGES


@<TRIPOS>ATOM
   1 N1             0.1500     1.3898    -0.0309 N.4     
   2 C2            -0.2992    -0.0030    -0.1587 C.3     
   3 C3             0.3555    -0.8522     0.9328 C.3     
   4 C4             1.6179     1.4359    -0.0642 C.3     
   5 C5            -0.3902     2.1825    -1.1434 C.3     
   6 C6            -0.3285     1.9437     1.2428 C.3     
   7 O7            -0.1478    -0.4564     2.2103 O.3     
   8 H8            -1.3831    -0.0465    -0.0517 H       
   9 H9            -0.0150    -0.3880    -1.1380 H       
  10 H10            0.1257    -1.9039     0.7617 H       
  11 H11            1.4355    -0.7074     0.9069 H       
  12 H12            1.9730     1.0248    -1.0093 H       
  13 H13            1.9512     2.4693     0.0306 H       
  14 H14            2.0188     0.8477     0.7612 H       
  15 H15           -1.4794     2.1483    -1.1186 H       
  16 H16           -0.0569     3.2160    -1.0486 H       
  17 H17           -0.0351     1.7715    -2.0884 H       
  18 H18            0.2030     1.4694     2.0678 H       
  19 H19           -0.1462     3.0182     1.2630 H       
  20 H20           -1.3973     1.7546     1.3425 H       
  21 H21            0.2246    -0.9540     2.9511 H       
@<TRIPOS>BOND
   1    1    2 1
   2    1    4 1
   3    1    5 1
   4    1    6 1
   5    2    3 1
   6    2    8 1
   7    2    9 1
   8    3    7 1
   9    3   10 1
  10    3   11 1
  11    4   12 1
  12    4   13 1
  13    4   14 1
  14    5   15 1
  15    5   16 1
  16    5   17 1
  17    6   18 1
  18    6   19 1
  19    6   20 1
  20    7   21 1

#	End of record

