#	Name: ASD01151054
#	Creating user name:	WinNT
#	Creation time:	15. 06. 2019 19:05

#	Modifying user name:	WinNT
#	Modification time:	15. 06. 2019 19:05

#	Program:	/corina/corina34_cracker 3.40 0067  02.08.2006

@<TRIPOS>MOLECULE
ASD01151054
  49   51    0    0    0
SMALL
NO_CHARGES


@<TRIPOS>ATOM
   1 O1             0.3153     0.6397    -0.2387 O.2     
   2 C2             0.1827     1.6016     0.4930 C.2     
   3 C3             1.3397     2.4711     0.7867 C.ar    
   4 C4             1.1904     3.5771     1.6270 C.ar    
   5 C5             2.2724     4.3877     1.8991 C.ar    
   6 C6             3.5085     4.1114     1.3431 C.ar    
   7 C7             3.6703     3.0154     0.5064 C.ar    
   8 C8             2.5893     2.1877     0.2296 C.ar    
   9 F9             2.7431     1.1201    -0.5838 F       
  10 N10            4.9237     2.7411    -0.0537 N.am    
  11 C11            6.0462     3.1244     0.5863 C.2     
  12 O12            5.9703     3.7853     1.6037 O.2     
  13 C13            7.3696     2.7411     0.0509 C.ar    
  14 C14            8.5342     3.1364     0.7112 C.ar    
  15 C15            9.7662     2.7749     0.2065 C.ar    
  16 C16            9.8490     2.0226    -0.9517 C.ar    
  17 C17            8.6986     1.6275    -1.6112 C.ar    
  18 C18            7.4602     1.9773    -1.1140 C.ar    
  19 N19           -1.0215     1.8775     1.0318 N.am    
  20 C20           -2.1412     1.1221     0.6661 C.ar    
  21 C21           -2.1062    -0.2638     0.7574 C.ar    
  22 Br22          -0.5451    -1.1326     1.3769 Br      
  23 C23           -3.2140    -1.0066     0.3953 C.ar    
  24 C24           -4.3561    -0.3721    -0.0574 C.ar    
  25 C25           -4.3945     1.0070    -0.1495 C.ar    
  26 C26           -3.2925     1.7566     0.2162 C.ar    
  27 Br27          -3.3463     3.6426     0.0903 Br      
  28 C28           -5.5618    -1.1857    -0.4517 C.3     
  29 C29           -6.7604    -0.2563    -0.6536 C.3     
  30 F30           -6.5307     0.5671    -1.7610 F       
  31 F31           -7.9117    -1.0206    -0.8715 F       
  32 F32           -6.9346     0.5344     0.4873 F       
  33 C33           -5.2697    -1.9316    -1.7552 C.3     
  34 F34           -4.1738    -2.7814    -1.5707 F       
  35 F35           -6.3890    -2.6868    -2.1213 F       
  36 F36           -4.9791    -1.0086    -2.7656 F       
  37 F37           -5.8524    -2.1087     0.5587 F       
  38 H38            0.2274     3.7975     2.0634 H       
  39 H39            2.1540     5.2422     2.5489 H       
  40 H40            4.3511     4.7510     1.5606 H       
  41 H41            4.9842     2.2752    -0.9023 H       
  42 H42            8.4709     3.7242     1.6150 H       
  43 H43           10.6680     3.0801     0.7164 H       
  44 H44           10.8159     1.7428    -1.3431 H       
  45 H45            8.7702     1.0407    -2.5150 H       
  46 H46            6.5630     1.6680    -1.6294 H       
  47 H47           -1.1120     2.5997     1.6730 H       
  48 H48           -3.1874    -2.0840     0.4657 H       
  49 H49           -5.2881     1.4993    -0.5038 H       
@<TRIPOS>BOND
   1    1    2 2
   2    2    3 1
   3    2   19 am
   4    3    4 ar
   5    3    8 ar
   6    4    5 ar
   7    4   38 1
   8    5    6 ar
   9    5   39 1
  10    6    7 ar
  11    6   40 1
  12    7    8 ar
  13    7   10 1
  14    8    9 1
  15   10   11 am
  16   10   41 1
  17   11   12 2
  18   11   13 1
  19   13   14 ar
  20   13   18 ar
  21   14   15 ar
  22   14   42 1
  23   15   16 ar
  24   15   43 1
  25   16   17 ar
  26   16   44 1
  27   17   18 ar
  28   17   45 1
  29   18   46 1
  30   19   20 1
  31   19   47 1
  32   20   21 ar
  33   20   26 ar
  34   21   22 1
  35   21   23 ar
  36   23   24 ar
  37   23   48 1
  38   24   25 ar
  39   24   28 1
  40   25   26 ar
  41   25   49 1
  42   26   27 1
  43   28   29 1
  44   28   33 1
  45   28   37 1
  46   29   30 1
  47   29   31 1
  48   29   32 1
  49   33   34 1
  50   33   35 1
  51   33   36 1

#	End of record

