#	Name: ASD01901584
#	Creating user name:	WinNT
#	Creation time:	15. 06. 2019 19:54

#	Modifying user name:	WinNT
#	Modification time:	15. 06. 2019 19:54

#	Program:	/corina/corina34_cracker 3.40 0067  02.08.2006

@<TRIPOS>MOLECULE
ASD01901584
  59   63    0    0    0
SMALL
NO_CHARGES


@<TRIPOS>ATOM
   1 C1            -0.0178     1.4608     0.0101 C.3     
   2 N2             0.0021    -0.0041     0.0020 N.am    
   3 C3             0.0055    -0.6617    -1.1705 C.2     
   4 O4             0.0944    -0.0307    -2.2055 O.2     
   5 N5            -0.0867    -2.0008    -1.2236 N.am    
   6 C6            -0.4190    -2.7207    -0.1365 C.2     
   7 O7            -0.4182    -3.9320    -0.1875 O.2     
   8 C8            -0.7922    -2.0191     1.1463 C.3     
   9 C9             0.0240    -0.7320     1.2675 C.3     
  10 C10           -0.5434     0.1469     2.3899 C.3     
  11 C11           -0.9635    -0.6926     3.5712 C.3     
  12 C12            0.1339    -1.2624     4.4320 C.3     
  13 C13            0.8389    -2.4344     3.7327 C.3     
  14 C14            1.8249    -1.8315     2.7443 C.2     
  15 N15            3.1237    -1.9270     2.7677 N.2     
  16 N16            3.6280    -1.2169     1.6667 N.pl3   
  17 C17            5.0418    -1.0660     1.3133 C.3     
  18 C18            2.5790    -0.6971     0.9891 C.2     
  19 C19            1.4581    -1.0661     1.6382 C.2     
  20 C20            0.1678    -2.6608    -2.4346 C.ar    
  21 C21           -0.8708    -2.8904    -3.3313 C.ar    
  22 F22           -2.1223    -2.4770    -3.0345 F       
  23 C23           -0.6242    -3.5394    -4.5239 C.ar    
  24 C24            0.6711    -3.9663    -4.8304 C.ar    
  25 C25            1.7122    -3.7339    -3.9270 C.ar    
  26 C26            1.4592    -3.0792    -2.7389 C.ar    
  27 F27            2.4658    -2.8493    -1.8676 F       
  28 C28            0.9308    -4.6406    -6.0668 C.1     
  29 C29            1.1437    -5.1934    -7.0804 C.1     
  30 C30            1.4034    -5.8676    -8.3167 C.ar    
  31 C31            0.3649    -6.0962    -9.2235 C.ar    
  32 C32            0.6226    -6.7462   -10.4122 C.ar    
  33 C33            1.9057    -7.1718   -10.7080 C.ar    
  34 C34            2.9390    -6.9494    -9.8148 C.ar    
  35 C35            2.6977    -6.2952    -8.6249 C.ar    
  36 H36            1.0048     1.8381     0.0023 H       
  37 H37           -0.5450     1.8219    -0.8730 H       
  38 H38           -0.5280     1.8123     0.9069 H       
  39 H39           -1.8556    -1.7801     1.1347 H       
  40 H40           -0.5732    -2.6687     1.9937 H       
  41 H41            0.2190     0.8577     2.7085 H       
  42 H42           -1.4078     0.6944     2.0140 H       
  43 H43           -1.6048    -0.0813     4.2062 H       
  44 H44           -1.5619    -1.5232     3.1968 H       
  45 H45            0.8642    -0.4812     4.6430 H       
  46 H46           -0.2943    -1.6125     5.3712 H       
  47 H47            1.3708    -3.0400     4.4665 H       
  48 H48            0.1081    -3.0459     3.2034 H       
  49 H49            5.3401    -1.8802     0.6529 H       
  50 H50            5.1895    -0.1131     0.8050 H       
  51 H51            5.6475    -1.0924     2.2191 H       
  52 H52            2.6307    -0.0964     0.0931 H       
  53 H53           -1.4310    -3.7176    -5.2194 H       
  54 H54            2.7141    -4.0627    -4.1605 H       
  55 H55           -0.6370    -5.7649    -8.9938 H       
  56 H56           -0.1790    -6.9239   -11.1138 H       
  57 H57            2.1016    -7.6804   -11.6405 H       
  58 H58            3.9378    -7.2847   -10.0523 H       
  59 H59            3.5061    -6.1177    -7.9311 H       
@<TRIPOS>BOND
   1    1    2 1
   2    1   36 1
   3    1   37 1
   4    1   38 1
   5    2    9 1
   6    2    3 am
   7    3    4 2
   8    3    5 am
   9    5    6 am
  10    5   20 1
  11    6    7 2
  12    6    8 1
  13    8    9 1
  14    8   39 1
  15    8   40 1
  16    9   19 1
  17    9   10 1
  18   10   11 1
  19   10   41 1
  20   10   42 1
  21   11   12 1
  22   11   43 1
  23   11   44 1
  24   12   13 1
  25   12   45 1
  26   12   46 1
  27   13   14 1
  28   13   47 1
  29   13   48 1
  30   14   19 1
  31   14   15 2
  32   15   16 1
  33   16   17 1
  34   16   18 1
  35   17   49 1
  36   17   50 1
  37   17   51 1
  38   18   19 2
  39   18   52 1
  40   20   26 ar
  41   20   21 ar
  42   21   22 1
  43   21   23 ar
  44   23   24 ar
  45   23   53 1
  46   24   25 ar
  47   24   28 1
  48   25   26 ar
  49   25   54 1
  50   26   27 1
  51   28   29 3
  52   29   30 1
  53   30   35 ar
  54   30   31 ar
  55   31   32 ar
  56   31   55 1
  57   32   33 ar
  58   32   56 1
  59   33   34 ar
  60   33   57 1
  61   34   35 ar
  62   34   58 1
  63   35   59 1

#	End of record

