#	Name: ASD01913693
#	Creating user name:	WinNT
#	Creation time:	15. 06. 2019 20:02

#	Modifying user name:	WinNT
#	Modification time:	15. 06. 2019 20:02

#	Program:	/corina/corina34_cracker 3.40 0067  02.08.2006

@<TRIPOS>MOLECULE
ASD01913693
  48   50    0    0    0
SMALL
NO_CHARGES


@<TRIPOS>ATOM
   1 C1            -0.0187     1.5258     0.0104 C.3     
   2 C2             0.0021    -0.0041     0.0020 C.3     
   3 O3            -1.3323    -0.4993     0.1295 O.3     
   4 C4            -1.4908    -1.8449     0.1393 C.ar    
   5 N5            -0.4283    -2.6279     0.0328 N.ar    
   6 C6            -0.5305    -3.9405     0.0373 C.ar    
   7 C7            -1.7771    -4.5560     0.1553 C.ar    
   8 C8            -2.9231    -3.7550     0.2699 C.ar    
   9 C9            -2.7674    -2.3842     0.2667 C.ar    
  10 C10           -1.8885    -6.0279     0.1590 C.2     
  11 N11           -0.7810    -6.7878     0.0478 N.am    
  12 O12           -2.9794    -6.5547     0.2623 O.2     
  13 C13           -0.8916    -8.2487     0.0515 C.3     
  14 C14            1.4196     2.0725    -0.0004 C.3     
  15 C15            1.5623     2.9119    -1.2867 C.3     
  16 C16            0.1099     3.3204    -1.6368 C.3     
  17 C17           -0.6998     2.0521    -1.2698 C.3     
  18 C18            0.3085    -8.8528    -0.6805 C.3     
  19 C19            0.1931   -10.3784    -0.6766 C.3     
  20 C20            0.1686   -10.8844     0.7671 C.3     
  21 C21           -1.0315   -10.2803     1.4990 C.3     
  22 C22           -0.9160    -8.7546     1.4952 C.3     
  23 H23           -0.5488     1.8869     0.8917 H       
  24 H24            0.4324    -0.3564    -0.9354 H       
  25 H25            0.6044    -0.3639     0.8362 H       
  26 H26            0.3589    -4.5466    -0.0516 H       
  27 H27           -3.9025    -4.2004     0.3628 H       
  28 H28           -3.6274    -1.7368     0.3535 H       
  29 H29            0.0893    -6.3675    -0.0346 H       
  30 H30           -1.8114    -8.5447    -0.4529 H       
  31 H31            1.5873     2.6996     0.8753 H       
  32 H32            2.1324     1.2479    -0.0116 H       
  33 H33            2.1726     3.7955    -1.0999 H       
  34 H34            1.9935     2.3118    -2.0880 H       
  35 H35           -0.2086     4.1702    -1.0330 H       
  36 H36            0.0170     3.5439    -2.6996 H       
  37 H37           -0.6340     1.3131    -2.0683 H       
  38 H38           -1.7404     2.3081    -1.0705 H       
  39 H39            0.3260    -8.4923    -1.7090 H       
  40 H40            1.2284    -8.5568    -0.1761 H       
  41 H41           -0.7268   -10.6744    -1.1810 H       
  42 H42            1.0480   -10.8088    -1.1981 H       
  43 H43            0.0864   -11.9713     0.7698 H       
  44 H44            1.0885   -10.5884     1.2714 H       
  45 H45           -1.9513   -10.5763     0.9946 H       
  46 H46           -1.0489   -10.6408     2.5275 H       
  47 H47            0.0038    -8.4586     1.9995 H       
  48 H48           -1.7710    -8.3243     2.0166 H       
@<TRIPOS>BOND
   1    1    2 1
   2    1   14 1
   3    1   17 1
   4    1   23 1
   5    2    3 1
   6    2   24 1
   7    2   25 1
   8    3    4 1
   9    4    5 ar
  10    4    9 ar
  11    5    6 ar
  12    6    7 ar
  13    6   26 1
  14    7    8 ar
  15    7   10 1
  16    8    9 ar
  17    8   27 1
  18    9   28 1
  19   10   11 am
  20   10   12 2
  21   11   13 1
  22   11   29 1
  23   13   18 1
  24   13   22 1
  25   13   30 1
  26   14   15 1
  27   14   31 1
  28   14   32 1
  29   15   16 1
  30   15   33 1
  31   15   34 1
  32   16   17 1
  33   16   35 1
  34   16   36 1
  35   17   37 1
  36   17   38 1
  37   18   19 1
  38   18   39 1
  39   18   40 1
  40   19   20 1
  41   19   41 1
  42   19   42 1
  43   20   21 1
  44   20   43 1
  45   20   44 1
  46   21   22 1
  47   21   45 1
  48   21   46 1
  49   22   47 1
  50   22   48 1

#	End of record

