#	Name: ASD04590150
#	Creating user name:	WinNT
#	Creation time:	15. 06. 2019 20:50

#	Modifying user name:	WinNT
#	Modification time:	15. 06. 2019 20:50

#	Program:	/corina/corina34_cracker 3.40 0067  02.08.2006

@<TRIPOS>MOLECULE
ASD04590150
  46   48    0    0    0
SMALL
NO_CHARGES


@<TRIPOS>ATOM
   1 N1            -0.0153     1.2802     0.0091 N.pl3   
   2 N2             0.0021    -0.0041     0.0020 N.2     
   3 C3             1.2455    -0.4440    -0.0122 C.2     
   4 C4             2.0903     0.6961    -0.0142 C.2     
   5 C5             1.2523     1.7667    -0.0004 C.2     
   6 C6             1.6765    -1.8547    -0.0232 C.2     
   7 N7             0.7571    -2.8402    -0.0194 N.am    
   8 O8             2.8611    -2.1284    -0.0356 O.2     
   9 N9             3.4930     0.7146    -0.0275 N.am    
  10 C10            4.1514     1.8906    -0.0274 C.2     
  11 C11            1.1851    -4.2412    -0.0303 C.3     
  12 C12            0.0894    -5.1158     0.5856 C.3     
  13 C13            0.5160    -6.5838     0.5160 C.3     
  14 N14            0.7410    -6.9637    -0.8845 N.3     
  15 C15            1.8214    -6.1695    -1.4831 C.3     
  16 C16            1.4338    -4.6891    -1.4733 C.3     
  17 O17            3.5295     2.9356    -0.0159 O.2     
  18 C18            5.6263     1.9101    -0.0414 C.ar    
  19 C19            6.3448     0.7119    -0.0547 C.ar    
  20 C20            6.3150     3.1307    -0.0472 C.ar    
  21 C21            7.7020     3.1371    -0.0603 C.ar    
  22 C22            8.3995     1.9457    -0.0676 C.ar    
  23 C23            7.7224     0.7370    -0.0677 C.ar    
  24 O24            5.6283     4.3006    -0.0405 O.3     
  25 C25            6.3978     5.5046    -0.0471 C.3     
  26 H26           -0.8184     1.8242     0.0160 H       
  27 H27            1.5405     2.8076     0.0024 H       
  28 H28           -0.1879    -2.6218    -0.0095 H       
  29 H29            3.9890    -0.1189    -0.0367 H       
  30 H30            2.1030    -4.3462     0.5480 H       
  31 H31           -0.0623    -4.8298     1.6264 H       
  32 H32           -0.8392    -4.9800     0.0312 H       
  33 H33            1.4373    -6.7215     1.0822 H       
  34 H34           -0.2682    -7.2104     0.9408 H       
  35 H35            0.9308    -7.9514    -0.9652 H       
  36 H36            2.7365    -6.3092    -0.9076 H       
  37 H37            1.9853    -6.4952    -2.5103 H       
  38 H38            0.5264    -4.5466    -2.0601 H       
  39 H39            2.2425    -4.0983    -1.9034 H       
  40 H40            5.8211    -0.2326    -0.0544 H       
  41 H41            8.2369     4.0753    -0.0652 H       
  42 H42            9.4794     1.9560    -0.0782 H       
  43 H43            8.2768    -0.1898    -0.0730 H       
  44 H44            5.7276     6.3642    -0.0406 H       
  45 H45            7.0345     5.5337     0.8371 H       
  46 H46            7.0183     5.5344    -0.9427 H       
@<TRIPOS>BOND
   1    1    2 1
   2    1    5 1
   3    1   26 1
   4    2    3 2
   5    3    4 1
   6    3    6 1
   7    4    5 2
   8    4    9 1
   9    5   27 1
  10    6    7 am
  11    6    8 2
  12    7   11 1
  13    7   28 1
  14    9   10 am
  15    9   29 1
  16   10   17 2
  17   10   18 1
  18   11   12 1
  19   11   16 1
  20   11   30 1
  21   12   13 1
  22   12   31 1
  23   12   32 1
  24   13   14 1
  25   13   33 1
  26   13   34 1
  27   14   15 1
  28   14   35 1
  29   15   16 1
  30   15   36 1
  31   15   37 1
  32   16   38 1
  33   16   39 1
  34   18   19 ar
  35   18   20 ar
  36   19   23 ar
  37   19   40 1
  38   20   21 ar
  39   20   24 1
  40   21   22 ar
  41   21   41 1
  42   22   23 ar
  43   22   42 1
  44   23   43 1
  45   24   25 1
  46   25   44 1
  47   25   45 1
  48   25   46 1

#	End of record

