#	Name: ASD04880377
#	Creating user name:	WinNT
#	Creation time:	15. 06. 2019 20:53

#	Modifying user name:	WinNT
#	Modification time:	15. 06. 2019 20:53

#	Program:	/corina/corina34_cracker 3.40 0067  02.08.2006

@<TRIPOS>MOLECULE
ASD04880377
  37   39    0    0    0
SMALL
NO_CHARGES


@<TRIPOS>ATOM
   1 C1            -0.0055     1.3689     0.2979 C.ar    
   2 C2             0.0100    -0.0223     0.2644 C.ar    
   3 C3            -1.1735    -0.7246     0.2174 C.ar    
   4 C4            -2.3916    -0.0385     0.2033 C.ar    
   5 C5            -2.4034     1.3591     0.2370 C.ar    
   6 C6            -1.2163     2.0550     0.2898 C.ar    
   7 C7            -3.6600    -0.7867     0.1525 C.2     
   8 N8            -3.7653    -2.0708     0.1186 N.2     
   9 N9            -5.0790    -2.5331     0.0744 N.am    
  10 C10           -5.9905    -1.3778     0.0797 C.3     
  11 C11           -5.0389    -0.1665     0.1388 C.3     
  12 C12           -5.4538    -3.8270     0.0331 C.2     
  13 O13           -6.6317    -4.1213     0.1004 O.2     
  14 C14           -4.4330    -4.8883    -0.0941 C.ar    
  15 C15           -3.0960    -4.5520    -0.3151 C.ar    
  16 C16           -4.8007    -6.2304     0.0118 C.ar    
  17 C17           -3.8409    -7.2175    -0.1082 C.ar    
  18 C18           -2.5171    -6.8758    -0.3327 C.ar    
  19 C19           -2.1473    -5.5464    -0.4331 C.ar    
  20 F20           -4.1940    -8.5176    -0.0061 F       
  21 S21            1.5113     2.2636     0.3581 S.3     
  22 C22            0.9642     3.9929     0.3864 C.3     
  23 H23            0.9513    -0.5516     0.2750 H       
  24 H24           -1.1608    -1.8042     0.1911 H       
  25 H25           -3.3425     1.8923     0.2259 H       
  26 H26           -1.2246     3.1346     0.3159 H       
  27 H27           -6.5879    -1.3564    -0.8318 H       
  28 H28           -6.6328    -1.4001     0.9601 H       
  29 H29           -5.2124     0.4121     1.0461 H       
  30 H30           -5.1622     0.4600    -0.7447 H       
  31 H31           -2.8051    -3.5149    -0.3939 H       
  32 H32           -5.8325    -6.4968     0.1875 H       
  33 H33           -1.7700    -7.6502    -0.4252 H       
  34 H34           -1.1138    -5.2866    -0.6082 H       
  35 H35            0.3874     4.2062    -0.5136 H       
  36 H36            0.3424     4.1629     1.2653 H       
  37 H37            1.8341     4.6486     0.4243 H       
@<TRIPOS>BOND
   1    1    2 ar
   2    1   21 1
   3    1    6 ar
   4    2    3 ar
   5    2   23 1
   6    3    4 ar
   7    3   24 1
   8    4    5 ar
   9    4    7 1
  10    5    6 ar
  11    5   25 1
  12    6   26 1
  13    7    8 2
  14    7   11 1
  15    8    9 1
  16    9   10 1
  17    9   12 am
  18   10   11 1
  19   10   27 1
  20   10   28 1
  21   11   29 1
  22   11   30 1
  23   12   13 2
  24   12   14 1
  25   14   15 ar
  26   14   16 ar
  27   15   19 ar
  28   15   31 1
  29   16   17 ar
  30   16   32 1
  31   17   18 ar
  32   17   20 1
  33   18   19 ar
  34   18   33 1
  35   19   34 1
  36   21   22 1
  37   22   35 1
  38   22   36 1
  39   22   37 1

#	End of record

