#	Name: ASD01884987
#	Creating user name:	WinNT
#	Creation time:	15. 06. 2019 19:49

#	Modifying user name:	WinNT
#	Modification time:	15. 06. 2019 19:49

#	Program:	/corina/corina34_cracker 3.40 0067  02.08.2006

@<TRIPOS>MOLECULE
ASD01884987
  53   57    0    0    0
SMALL
NO_CHARGES


@<TRIPOS>ATOM
   1 C1            -0.0179     1.3747    -0.0314 C.ar    
   2 C2             0.0008    -0.0038    -0.0391 C.ar    
   3 C3            -1.1979    -0.7168     0.0101 C.ar    
   4 C4            -2.4120    -0.0324     0.0669 C.ar    
   5 C5            -2.4256     1.3461     0.0743 C.ar    
   6 C6            -1.2307     2.0546     0.0307 C.ar    
   7 C7            -1.1809    -2.1979     0.0015 C.2     
   8 C8            -1.6290    -2.9075     1.1001 C.2     
   9 C9            -0.7110    -2.9012    -1.1345 C.2     
  10 C10           -0.6973    -4.2471    -1.1405 C.2     
  11 N11           -1.1331    -4.9559    -0.0581 N.pl3   
  12 C12           -1.6010    -4.3118     1.0619 C.2     
  13 C13           -1.2316    -6.2874     0.2108 C.2     
  14 N14           -1.7227    -6.4105     1.4168 N.2     
  15 N15           -1.9455    -5.2515     1.9291 N.2     
  16 C16           -0.8460    -7.4137    -0.7132 C.3     
  17 N17           -1.2475     3.4502     0.0388 N.3     
  18 Cl18           1.4725     2.2629    -0.0920 Cl      
  19 C19            0.2351    -8.3835    -0.2320 C.3     
  20 C20           -1.2257    -8.8346    -0.2918 C.3     
  21 C21           -0.6674     3.9762     1.2811 C.3     
  22 C22           -2.6082     3.9614    -0.1699 C.3     
  23 C23           -2.5675     5.4857    -0.3003 C.3     
  24 C24           -1.9664     6.0862     0.9735 C.3     
  25 C25           -0.5687     5.5009     1.1940 C.3     
  26 C26           -1.8668     7.6057     0.8248 C.3     
  27 O27           -2.7990     5.7679     2.0904 O.3     
  28 C28           -2.1393    -2.1857     2.3206 C.3     
  29 F29           -3.5319    -2.0733     2.2477 F       
  30 F30           -1.7890    -2.9049     3.4683 F       
  31 F31           -1.5709    -0.9087     2.3789 F       
  32 H32            0.9421    -0.5314    -0.0834 H       
  33 H33           -3.3408    -0.5821     0.1047 H       
  34 H34           -3.3657     1.8760     0.1180 H       
  35 H35           -0.3628    -2.3556    -1.9991 H       
  36 H36           -0.3375    -4.7729    -2.0126 H       
  37 H37           -0.8745    -7.1794    -1.7773 H       
  38 H38            0.9176    -8.7876    -0.9797 H       
  39 H39            0.6674    -8.2069     0.7529 H       
  40 H40           -1.7544    -8.9548     0.6538 H       
  41 H41           -1.5042    -9.5355    -1.0787 H       
  42 H42           -1.3021     3.7009     2.1233 H       
  43 H43            0.3280     3.5555     1.4238 H       
  44 H44           -3.0224     3.5299    -1.0811 H       
  45 H45           -3.2338     3.6861     0.6792 H       
  46 H46           -1.9532     5.7613    -1.1576 H       
  47 H47           -3.5794     5.8661    -0.4396 H       
  48 H48           -0.1526     5.8923     2.1223 H       
  49 H49            0.0770     5.7768     0.3603 H       
  50 H50           -2.8615     8.0208     0.6623 H       
  51 H51           -1.4389     8.0322     1.7320 H       
  52 H52           -1.2292     7.8465    -0.0258 H       
  53 H53           -2.4777     6.1177     2.9328 H       
@<TRIPOS>BOND
   1    1    2 ar
   2    1   18 1
   3    1    6 ar
   4    2    3 ar
   5    2   32 1
   6    3    4 ar
   7    3    7 1
   8    4    5 ar
   9    4   33 1
  10    5    6 ar
  11    5   34 1
  12    6   17 1
  13    7    8 2
  14    7    9 1
  15    8   28 1
  16    8   12 1
  17    9   10 2
  18    9   35 1
  19   10   11 1
  20   10   36 1
  21   11   12 1
  22   11   13 1
  23   12   15 2
  24   13   14 2
  25   13   16 1
  26   14   15 1
  27   16   19 1
  28   16   20 1
  29   16   37 1
  30   17   21 1
  31   17   22 1
  32   19   20 1
  33   19   38 1
  34   19   39 1
  35   20   40 1
  36   20   41 1
  37   21   25 1
  38   21   42 1
  39   21   43 1
  40   22   23 1
  41   22   44 1
  42   22   45 1
  43   23   24 1
  44   23   46 1
  45   23   47 1
  46   24   25 1
  47   24   26 1
  48   24   27 1
  49   25   48 1
  50   25   49 1
  51   26   50 1
  52   26   51 1
  53   26   52 1
  54   27   53 1
  55   28   29 1
  56   28   30 1
  57   28   31 1

#	End of record

