#	Name: ASD05430670
#	Creating user name:	WinNT
#	Creation time:	15. 06. 2019 21:00

#	Modifying user name:	WinNT
#	Modification time:	15. 06. 2019 21:00

#	Program:	/corina/corina34_cracker 3.40 0067  02.08.2006

@<TRIPOS>MOLECULE
ASD05430670
  27   27    0    0    0
SMALL
NO_CHARGES


@<TRIPOS>ATOM
   1 C1            -0.0167     1.3782     0.0096 C.ar    
   2 C2             0.0021    -0.0041     0.0020 C.ar    
   3 C3            -1.1846    -0.7141     0.0095 C.ar    
   4 C4            -2.4133     1.3439     0.0439 C.ar    
   5 C5            -1.2217     2.0538     0.0305 C.ar    
   6 C6             1.2784     2.1488     0.0014 C.3     
   7 C7            -2.3919    -0.0433     0.0247 C.ar    
   8 C8             2.0974     1.7830     1.2409 C.3     
   9 C9             2.0735     1.7964    -1.2574 C.3     
  10 O10           -3.5999     2.0062     0.0649 O.3     
  11 S11           -4.2115     2.3437    -1.4410 Du      
  12 F12           -5.6676     1.8537    -0.9594 F       
  13 F13           -4.5580     3.8420    -0.9644 F       
  14 F14           -2.7554     2.8336    -1.9226 F       
  15 F15           -4.8047     2.6710    -2.9015 F       
  16 F16           -3.8650     0.8453    -1.9175 F       
  17 H17            0.9451    -0.5304    -0.0102 H       
  18 H18           -1.1673    -1.7939     0.0032 H       
  19 H19           -1.2357     3.1336     0.0454 H       
  20 H20            1.0652     3.2177     0.0092 H       
  21 H21           -3.3185    -0.5983     0.0302 H       
  22 H22            2.3105     0.7141     1.2331 H       
  23 H23            3.0341     2.3403     1.2350 H       
  24 H24            1.5309     2.0340     2.1377 H       
  25 H25            3.0102     2.3538    -1.2634 H       
  26 H26            2.2867     0.7275    -1.2652 H       
  27 H27            1.4901     2.0570    -2.1405 H       
@<TRIPOS>BOND
   1    1    2 ar
   2    1    6 1
   3    1    5 ar
   4    2    3 ar
   5    2   17 1
   6    3    7 ar
   7    3   18 1
   8    4    5 ar
   9    4   10 1
  10    4    7 ar
  11    5   19 1
  12    6    8 1
  13    6    9 1
  14    6   20 1
  15    7   21 1
  16    8   22 1
  17    8   23 1
  18    8   24 1
  19    9   25 1
  20    9   26 1
  21    9   27 1
  22   10   11 1
  23   11   12 1
  24   11   13 1
  25   11   14 1
  26   11   15 1
  27   11   16 1

#	End of record

