#	Name: ASD04550005
#	Creating user name:	WinNT
#	Creation time:	15. 06. 2019 20:49

#	Modifying user name:	WinNT
#	Modification time:	15. 06. 2019 20:49

#	Program:	/corina/corina34_cracker 3.40 0067  02.08.2006

@<TRIPOS>MOLECULE
ASD04550005
  31   31    0    0    0
SMALL
NO_CHARGES


@<TRIPOS>ATOM
   1 C1             0.1003     1.2619     0.1490 C.ar    
   2 C2             0.0582    -0.1326     0.1725 C.ar    
   3 C3             1.2466    -0.8593     0.2521 C.ar    
   4 C4             2.4551    -0.1958     0.3070 C.ar    
   5 C5             2.4901     1.1870     0.2837 C.ar    
   6 C6             1.3153     1.9134     0.2045 C.ar    
   7 C7            -1.2400    -0.8370     0.1139 C.2     
   8 C8            -2.3112    -0.3010     0.6819 C.2     
   9 C9             3.8135     1.9052     0.3449 C.3     
  10 C10            3.9889     2.7594    -0.9122 C.3     
  11 C11           -2.1749     0.9389     1.5276 C.3     
  12 C12           -3.6653    -0.9315     0.4820 C.3     
  13 C13            3.8482     2.7914     1.5633 C.2     
  14 O14            2.8960     2.8353     2.3058 O.2     
  15 O15            4.9370     3.5319     1.8238 O.3     
  16 H16           -0.8158     1.8300     0.0830 H       
  17 H17            1.2206    -1.9389     0.2710 H       
  18 H18            3.3757    -0.7571     0.3685 H       
  19 H19            1.3493     2.9927     0.1863 H       
  20 H20           -1.3159    -1.7883    -0.3916 H       
  21 H21            4.6207     1.1750     0.4036 H       
  22 H22            3.1817     3.4895    -0.9709 H       
  23 H23            4.9461     3.2789    -0.8679 H       
  24 H24            3.9638     2.1184    -1.7935 H       
  25 H25           -2.3168     1.8215     0.9040 H       
  26 H26           -2.9279     0.9259     2.3156 H       
  27 H27           -1.1813     0.9661     1.9750 H       
  28 H28           -3.5660    -1.8116    -0.1534 H       
  29 H29           -4.0755    -1.2253     1.4481 H       
  30 H30           -4.3337    -0.2137     0.0065 H       
  31 H31            4.9126     4.0848     2.6168 H       
@<TRIPOS>BOND
   1    1    2 ar
   2    1    6 ar
   3    1   16 1
   4    2    3 ar
   5    2    7 1
   6    3    4 ar
   7    3   17 1
   8    4    5 ar
   9    4   18 1
  10    5    6 ar
  11    5    9 1
  12    6   19 1
  13    7    8 2
  14    7   20 1
  15    8   11 1
  16    8   12 1
  17    9   10 1
  18    9   13 1
  19    9   21 1
  20   10   22 1
  21   10   23 1
  22   10   24 1
  23   11   25 1
  24   11   26 1
  25   11   27 1
  26   12   28 1
  27   12   29 1
  28   12   30 1
  29   13   14 2
  30   13   15 1
  31   15   31 1

#	End of record

