#	Name: ASD01890312
#	Creating user name:	WinNT
#	Creation time:	15. 06. 2019 19:50

#	Modifying user name:	WinNT
#	Modification time:	15. 06. 2019 19:50

#	Program:	/corina/corina34_cracker 3.40 0067  02.08.2006

@<TRIPOS>MOLECULE
ASD01890312
  40   41    0    0    0
SMALL
NO_CHARGES


@<TRIPOS>ATOM
   1 C1            -0.0570     1.1576    -1.1701 C.2     
   2 C2             0.0014    -0.1794    -0.5746 C.2     
   3 C3             1.1726    -0.6614    -0.1144 C.2     
   4 C4             1.2071    -1.9683     0.6352 C.3     
   5 C5             1.5396    -3.1039    -0.3348 C.3     
   6 O6             0.9201     1.8806    -1.1382 O.2     
   7 O7            -1.1930     1.5847    -1.7587 O.3     
   8 C8             2.4196     0.0895    -0.3441 C.ar    
   9 C9             3.1193     0.6203     0.7421 C.ar    
  10 C10            4.2890     1.3230     0.5092 C.ar    
  11 C11            4.7222     1.4731    -0.8003 C.ar    
  12 C12            3.9790     0.9205    -1.8302 C.ar    
  13 N13            2.8731     0.2521    -1.5831 N.ar    
  14 C14            1.5741    -4.4108     0.4148 C.ar    
  15 C15            0.4229    -5.1657     0.5408 C.ar    
  16 C16            0.4540    -6.3644     1.2281 C.ar    
  17 C17            1.6376    -6.8087     1.7901 C.ar    
  18 C18            2.7894    -6.0528     1.6637 C.ar    
  19 C19            2.7583    -4.8570     0.9713 C.ar    
  20 Cl20           1.6773    -8.3140     2.6540 Cl      
  21 C21           -1.1787     2.9204    -2.3277 C.3     
  22 C22           -2.5444     3.2260    -2.9460 C.3     
  23 H23           -0.8942    -0.7788    -0.5043 H       
  24 H24            1.9687    -1.9206     1.4135 H       
  25 H25            0.2338    -2.1521     1.0900 H       
  26 H26            0.7780    -3.1515    -1.1132 H       
  27 H27            2.5129    -2.9200    -0.7896 H       
  28 H28            2.7529     0.4846     1.7489 H       
  29 H29            4.8517     1.7454     1.3286 H       
  30 H30            5.6307     2.0163    -1.0147 H       
  31 H31            4.3142     1.0365    -2.8503 H       
  32 H32           -0.5010    -4.8185     0.1023 H       
  33 H33           -0.4455    -6.9539     1.3268 H       
  34 H34            3.7136    -6.3992     2.1022 H       
  35 H35            3.6584    -4.2689     0.8687 H       
  36 H36           -0.9639     3.6469    -1.5440 H       
  37 H37           -0.4098     2.9790    -3.0981 H       
  38 H38           -2.5337     4.2288    -3.3732 H       
  39 H39           -2.7592     2.4995    -3.7297 H       
  40 H40           -3.3133     3.1675    -2.1757 H       
@<TRIPOS>BOND
   1    1    2 1
   2    1    6 2
   3    1    7 1
   4    2    3 2
   5    2   23 1
   6    3    4 1
   7    3    8 1
   8    4    5 1
   9    4   24 1
  10    4   25 1
  11    5   14 1
  12    5   26 1
  13    5   27 1
  14    7   21 1
  15    8    9 ar
  16    8   13 ar
  17    9   10 ar
  18    9   28 1
  19   10   11 ar
  20   10   29 1
  21   11   12 ar
  22   11   30 1
  23   12   13 ar
  24   12   31 1
  25   14   15 ar
  26   14   19 ar
  27   15   16 ar
  28   15   32 1
  29   16   17 ar
  30   16   33 1
  31   17   18 ar
  32   17   20 1
  33   18   19 ar
  34   18   34 1
  35   19   35 1
  36   21   22 1
  37   21   36 1
  38   21   37 1
  39   22   38 1
  40   22   39 1
  41   22   40 1

#	End of record

