#	Name: ASD01420050
#	Creating user name:	WinNT
#	Creation time:	15. 06. 2019 19:20

#	Modifying user name:	WinNT
#	Modification time:	15. 06. 2019 19:20

#	Program:	/corina/corina34_cracker 3.40 0067  02.08.2006

@<TRIPOS>MOLECULE
ASD01420050
  69   73    0    0    0
SMALL
NO_CHARGES


@<TRIPOS>ATOM
   1 C1            -0.0144     1.2120     0.0087 C.2     
   2 O2             0.0200     0.2213    -0.6960 O.2     
   3 C3             1.1704     2.0804     0.1169 C.ar    
   4 C4             2.4466     1.5158     0.2649 C.ar    
   5 C5             3.5546     2.3390     0.3654 C.ar    
   6 C6             3.4021     3.7171     0.3198 C.ar    
   7 C7             2.1374     4.2784     0.1732 C.ar    
   8 C8             1.0288     3.4705     0.0669 C.ar    
   9 C9             1.9819     5.7766     0.1252 C.3     
  10 C10            1.3485     6.1812    -1.2074 C.3     
  11 C11            1.0835     6.2332     1.2764 C.3     
  12 O12            4.4909     4.5212     0.4191 O.3     
  13 C13            5.7593     3.8802     0.5683 C.3     
  14 C14            6.8419     4.9243     0.6619 C.ar    
  15 C15            7.2113     5.4285     1.8949 C.ar    
  16 C16            8.2043     6.3863     1.9807 C.ar    
  17 C17            8.8283     6.8396     0.8335 C.ar    
  18 C18            8.4596     6.3348    -0.3994 C.ar    
  19 C19            7.4696     5.3738    -0.4848 C.ar    
  20 O20            2.5937     0.1679     0.3097 O.3     
  21 C21            3.9226    -0.3350     0.4619 C.3     
  22 C22            3.8893    -1.8413     0.4910 C.ar    
  23 C23            4.0007    -2.5580    -0.6859 C.ar    
  24 C24            3.9701    -3.9397    -0.6592 C.ar    
  25 C25            3.8287    -4.6049     0.5443 C.ar    
  26 C26            3.7183    -3.8882     1.7212 C.ar    
  27 C27            3.7532    -2.5066     1.6950 C.ar    
  28 C28           -1.3057     2.6072     1.6538 C.3     
  29 N29           -1.1385     1.5183     0.6862 N.am    
  30 C30           -2.4282     0.8263     0.5966 C.3     
  31 C31           -3.3863     1.5189     1.5326 C.ar    
  32 C32           -4.7149     1.2680     1.8241 C.ar    
  33 C33           -5.3882     2.0651     2.7397 C.ar    
  34 C34           -4.7234     3.1146     3.3616 C.ar    
  35 C35           -3.3978     3.3601     3.0667 C.ar    
  36 C36           -2.7282     2.5632     2.1527 C.ar    
  37 N37           -6.7299     1.8130     3.0346 N.pl3   
  38 H38            4.5384     1.9083     0.4797 H       
  39 H39            0.0494     3.9099    -0.0513 H       
  40 H40            2.9608     6.2467     0.2198 H       
  41 H41            1.2360     7.2648    -1.2421 H       
  42 H42            1.9885     5.8559    -2.0276 H       
  43 H43            0.3696     5.7111    -1.3020 H       
  44 H44            1.5348     5.9450     2.2258 H       
  45 H45            0.9710     7.3168     1.2417 H       
  46 H46            0.1046     5.7631     1.1818 H       
  47 H47            5.7570     3.2769     1.4761 H       
  48 H48            5.9461     3.2393    -0.2933 H       
  49 H49            6.7237     5.0743     2.7911 H       
  50 H50            8.4923     6.7807     2.9440 H       
  51 H51            9.6037     7.5884     0.9005 H       
  52 H52            8.9469     6.6892    -1.2957 H       
  53 H53            7.1841     4.9767    -1.4477 H       
  54 H54            4.5355    -0.0012    -0.3753 H       
  55 H55            4.3473     0.0371     1.3942 H       
  56 H56            4.1112    -2.0383    -1.6262 H       
  57 H57            4.0564    -4.4996    -1.5787 H       
  58 H58            3.8041    -5.6844     0.5650 H       
  59 H59            3.6075    -4.4079     2.6615 H       
  60 H60            3.6706    -1.9468     2.6149 H       
  61 H61           -0.6174     2.4693     2.4877 H       
  62 H62           -1.1135     3.5645     1.1695 H       
  63 H63           -2.8058     0.8795    -0.4245 H       
  64 H64           -2.3097    -0.2157     0.8937 H       
  65 H65           -5.2290     0.4515     1.3388 H       
  66 H66           -5.2433     3.7376     4.0744 H       
  67 H67           -2.8810     4.1761     3.5497 H       
  68 H68           -7.1927     1.0800     2.5993 H       
  69 H69           -7.1990     2.3709     3.6747 H       
@<TRIPOS>BOND
   1    1    2 2
   2    1    3 1
   3    1   29 am
   4    3    4 ar
   5    3    8 ar
   6    4    5 ar
   7    4   20 1
   8    5    6 ar
   9    5   38 1
  10    6    7 ar
  11    6   12 1
  12    7    8 ar
  13    7    9 1
  14    8   39 1
  15    9   10 1
  16    9   11 1
  17    9   40 1
  18   10   41 1
  19   10   42 1
  20   10   43 1
  21   11   44 1
  22   11   45 1
  23   11   46 1
  24   12   13 1
  25   13   14 1
  26   13   47 1
  27   13   48 1
  28   14   15 ar
  29   14   19 ar
  30   15   16 ar
  31   15   49 1
  32   16   17 ar
  33   16   50 1
  34   17   18 ar
  35   17   51 1
  36   18   19 ar
  37   18   52 1
  38   19   53 1
  39   20   21 1
  40   21   22 1
  41   21   54 1
  42   21   55 1
  43   22   23 ar
  44   22   27 ar
  45   23   24 ar
  46   23   56 1
  47   24   25 ar
  48   24   57 1
  49   25   26 ar
  50   25   58 1
  51   26   27 ar
  52   26   59 1
  53   27   60 1
  54   28   29 1
  55   28   36 1
  56   28   61 1
  57   28   62 1
  58   29   30 1
  59   30   31 1
  60   30   63 1
  61   30   64 1
  62   31   32 ar
  63   31   36 ar
  64   32   33 ar
  65   32   65 1
  66   33   34 ar
  67   33   37 1
  68   34   35 ar
  69   34   66 1
  70   35   36 ar
  71   35   67 1
  72   37   68 1
  73   37   69 1

#	End of record

