#	Name: ASD01884047
#	Creating user name:	WinNT
#	Creation time:	15. 06. 2019 19:47

#	Modifying user name:	WinNT
#	Modification time:	15. 06. 2019 19:47

#	Program:	/corina/corina34_cracker 3.40 0067  02.08.2006

@<TRIPOS>MOLECULE
ASD01884047
  51   53    0    0    0
SMALL
NO_CHARGES


@<TRIPOS>ATOM
   1 C1            -0.8297    -0.0403     1.1339 C.2     
   2 C2             0.0021    -0.0041     0.0020 C.2     
   3 C3            -0.4084     0.7466    -1.1152 C.2     
   4 C4            -1.5823     1.4144    -1.0856 C.2     
   5 N5            -2.3876     1.3803     0.0079 N.am    
   6 C6            -2.0503     0.6747     1.1034 C.2     
   7 C7            -0.4523    -0.7912     2.2934 C.1     
   8 N8            -0.1529    -1.3868     3.2133 N.1     
   9 N9             1.1960    -0.6894    -0.0135 N.pl3   
  10 O10           -2.7908     0.6601     2.0721 O.2     
  11 C11           -3.6513     2.1211    -0.0078 C.3     
  12 C12           -4.7644     1.2193    -0.5452 C.3     
  13 C13           -6.0843     1.9930    -0.5616 C.3     
  14 C14           -7.1974     1.0913    -1.0990 C.3     
  15 C15            1.2257    -2.1564     0.0884 C.3     
  16 C16            2.0846    -2.7064    -1.0553 C.3     
  17 N17            3.4012    -2.0553    -1.0315 N.3     
  18 C18            3.2853    -0.6100    -1.2672 C.3     
  19 C19            2.4752     0.0255    -0.1384 C.3     
  20 C20            4.2601    -2.6397    -1.9459 C.ar    
  21 N21            3.8262    -3.6489    -2.6862 N.ar    
  22 C22            4.6195    -4.2330    -3.5717 C.ar    
  23 C23            5.9162    -3.7787    -3.7204 C.ar    
  24 C24            6.3437    -2.7147    -2.9270 C.ar    
  25 N25            5.4942    -2.1724    -2.0632 N.ar    
  26 O26            7.6069    -2.2375    -3.0401 O.3     
  27 C27            7.9664    -1.1456    -2.1912 C.3     
  28 H28            0.2151     0.7891    -1.9961 H       
  29 H29           -1.8867     1.9875    -1.9489 H       
  30 H30           -3.8986     2.4393     1.0049 H       
  31 H31           -3.5514     2.9965    -0.6495 H       
  32 H32           -4.5172     0.9011    -1.5579 H       
  33 H33           -4.8644     0.3439     0.0965 H       
  34 H34           -6.3316     2.3112     0.4511 H       
  35 H35           -5.9843     2.8684    -1.2033 H       
  36 H36           -7.2974     0.2158    -0.4573 H       
  37 H37           -8.1377     1.6424    -1.1107 H       
  38 H38           -6.9501     0.7731    -2.1117 H       
  39 H39            1.6592    -2.4483     1.0449 H       
  40 H40            0.2124    -2.5497     0.0071 H       
  41 H41            2.2086    -3.7823    -0.9320 H       
  42 H42            1.5954    -2.5030    -2.0079 H       
  43 H43            4.2800    -0.1655    -1.2977 H       
  44 H44            2.7793    -0.4358    -2.2169 H       
  45 H45            2.2892     1.0749    -0.3671 H       
  46 H46            3.0264    -0.0559     0.7985 H       
  47 H47            4.2571    -5.0555    -4.1705 H       
  48 H48            6.5835    -4.2376    -4.4349 H       
  49 H49            7.3134    -0.2969    -2.3946 H       
  50 H50            7.8587    -1.4452    -1.1487 H       
  51 H51            9.0013    -0.8619    -2.3826 H       
@<TRIPOS>BOND
   1    1    2 2
   2    1    7 1
   3    1    6 1
   4    2    3 1
   5    2    9 1
   6    3    4 2
   7    3   28 1
   8    4    5 1
   9    4   29 1
  10    5   11 1
  11    5    6 am
  12    6   10 2
  13    7    8 3
  14    9   15 1
  15    9   19 1
  16   11   12 1
  17   11   30 1
  18   11   31 1
  19   12   13 1
  20   12   32 1
  21   12   33 1
  22   13   14 1
  23   13   34 1
  24   13   35 1
  25   14   36 1
  26   14   37 1
  27   14   38 1
  28   15   16 1
  29   15   39 1
  30   15   40 1
  31   16   17 1
  32   16   41 1
  33   16   42 1
  34   17   18 1
  35   17   20 1
  36   18   19 1
  37   18   43 1
  38   18   44 1
  39   19   45 1
  40   19   46 1
  41   20   21 ar
  42   20   25 ar
  43   21   22 ar
  44   22   23 ar
  45   22   47 1
  46   23   24 ar
  47   23   48 1
  48   24   25 ar
  49   24   26 1
  50   26   27 1
  51   27   49 1
  52   27   50 1
  53   27   51 1

#	End of record

