#	Name: ASD01810535
#	Creating user name:	WinNT
#	Creation time:	15. 06. 2019 19:24

#	Modifying user name:	WinNT
#	Modification time:	15. 06. 2019 19:24

#	Program:	/corina/corina34_cracker 3.40 0067  02.08.2006

@<TRIPOS>MOLECULE
ASD01810535
  85   89    0    0    0
SMALL
NO_CHARGES


@<TRIPOS>ATOM
   1 S1            -0.0317     1.8323     0.0406 S.3     
   2 C2            -0.0209    -0.0006     0.0471 C.3     
   3 N3             1.3265    -0.3352     0.5108 N.am    
   4 C4             2.2495     0.6216     0.4773 C.2     
   5 C5             1.7996     1.9723    -0.0447 C.3     
   6 C6            -1.0794    -0.5164     1.0131 C.3     
   7 C7            -1.0479    -2.0489     1.0345 C.3     
   8 N8            -1.1695    -2.5424    -0.3441 N.am    
   9 C9            -0.2251    -2.0526    -1.3576 C.3     
  10 C10           -0.2620    -0.5200    -1.3642 C.3     
  11 C11            2.3024     3.1003     0.8585 C.3     
  12 C12            1.9388     4.4508     0.2381 C.3     
  13 O13            3.3886     0.4246     0.8439 O.2     
  14 C14            1.6476    -1.6797     0.9961 C.3     
  15 N15            1.6791    -4.5964     4.9920 N.3     
  16 C16            1.7437    -4.6476     6.4582 C.3     
  17 C17            2.0942    -6.0686     6.9053 C.3     
  18 C18            1.0280    -7.0386     6.3886 C.3     
  19 C19            0.9472    -6.9305     4.8634 C.3     
  20 C20            0.6299    -5.4845     4.4754 C.3     
  21 N21            1.3889    -8.4080     6.7639 N.am    
  22 C22            0.6273    -9.2634     7.5566 C.ar    
  23 C23            2.5104    -9.0561     6.3966 C.2     
  24 N24            2.5105   -10.2955     6.9225 N.am    
  25 C25            1.3398   -10.4599     7.6589 C.ar    
  26 C26            0.8213   -11.5111     8.3998 C.ar    
  27 C27           -0.3975   -11.3699     9.0337 C.ar    
  28 C28           -1.1040   -10.1837     8.9321 C.ar    
  29 C29           -0.5970    -9.1321     8.1943 C.ar    
  30 O30            3.3903    -8.5920     5.6958 O.2     
  31 O31           -2.2306    -3.8731    -1.9401 O.3     
  32 C32           -3.2886    -4.8267    -2.2222 C.3     
  33 C33           -4.6441    -4.1948    -1.8993 C.3     
  34 C34           -3.2456    -5.2131    -3.7020 C.3     
  35 C35           -3.0909    -6.0769    -1.3626 C.3     
  36 C36           -2.1300    -3.4288    -0.6731 C.2     
  37 O37           -2.9051    -3.8270     0.1737 O.2     
  38 C38            1.4616    -1.7319     2.5139 C.3     
  39 C39            1.6674    -3.1666     3.0039 C.3     
  40 C40            1.4814    -3.2188     4.5216 C.3     
  41 H41            2.1300     2.1205    -1.0729 H       
  42 H42           -0.8753    -0.1348     2.0135 H       
  43 H43           -2.0634    -0.1777     0.6887 H       
  44 H44           -0.1052    -2.3893     1.4628 H       
  45 H45           -1.8795    -2.4234     1.6315 H       
  46 H46            0.7814    -2.3930    -1.1143 H       
  47 H47           -0.5137    -2.4295    -2.3388 H       
  48 H48           -1.2371    -0.1815    -1.7144 H       
  49 H49            0.5145    -0.1407    -2.0286 H       
  50 H50            1.8369     3.0144     1.8403 H       
  51 H51            3.3850     3.0277     0.9620 H       
  52 H52            0.8561     4.5234     0.1346 H       
  53 H53            2.2969     5.2544     0.8816 H       
  54 H54            2.4043     4.5367    -0.7437 H       
  55 H55            0.9846    -2.4045     0.5237 H       
  56 H56            2.6820    -1.9179     0.7484 H       
  57 H57            2.5085    -3.9564     6.8124 H       
  58 H58            0.7771    -4.3639     6.8745 H       
  59 H59            3.0670    -6.3479     6.5008 H       
  60 H60            2.1267    -6.1099     7.9941 H       
  61 H61            0.0618    -6.7833     6.8236 H       
  62 H62            1.9020    -7.2234     4.4267 H       
  63 H63            0.1602    -7.5876     4.4932 H       
  64 H64           -0.3314    -5.1969     4.9010 H       
  65 H65            0.5858    -5.4012     3.3895 H       
  66 H66            3.2062   -10.9614     6.8061 H       
  67 H67            1.3693   -12.4382     8.4808 H       
  68 H68           -0.8014   -12.1886     9.6108 H       
  69 H69           -2.0567   -10.0809     9.4303 H       
  70 H70           -1.1509    -8.2082     8.1173 H       
  71 H71           -4.7849    -3.3042    -2.5116 H       
  72 H72           -5.4383    -4.9107    -2.1111 H       
  73 H73           -4.6747    -3.9195    -0.8451 H       
  74 H74           -2.2799    -5.6633    -3.9320 H       
  75 H75           -4.0398    -5.9290    -3.9138 H       
  76 H76           -3.3864    -4.3225    -4.3143 H       
  77 H77           -3.1215    -5.8015    -0.3084 H       
  78 H78           -3.8851    -6.7927    -1.5744 H       
  79 H79           -2.1252    -6.5270    -1.5927 H       
  80 H80            2.1898    -1.0767     2.9919 H       
  81 H81            0.4542    -1.4022     2.7680 H       
  82 H82            0.9392    -3.8218     2.5258 H       
  83 H83            2.6748    -3.4963     2.7497 H       
  84 H84            0.4741    -2.8891     4.7758 H       
  85 H85            2.2096    -2.5636     4.9997 H       
@<TRIPOS>BOND
   1    1    2 1
   2    1    5 1
   3    2    3 1
   4    2    6 1
   5    2   10 1
   6    3    4 am
   7    3   14 1
   8    4    5 1
   9    4   13 2
  10    5   11 1
  11    5   41 1
  12    6    7 1
  13    6   42 1
  14    6   43 1
  15    7    8 1
  16    7   44 1
  17    7   45 1
  18    8   36 am
  19    8    9 1
  20    9   10 1
  21    9   46 1
  22    9   47 1
  23   10   48 1
  24   10   49 1
  25   11   12 1
  26   11   50 1
  27   11   51 1
  28   12   52 1
  29   12   53 1
  30   12   54 1
  31   14   38 1
  32   14   55 1
  33   14   56 1
  34   15   40 1
  35   15   16 1
  36   15   20 1
  37   16   17 1
  38   16   57 1
  39   16   58 1
  40   17   18 1
  41   17   59 1
  42   17   60 1
  43   18   19 1
  44   18   21 1
  45   18   61 1
  46   19   20 1
  47   19   62 1
  48   19   63 1
  49   20   64 1
  50   20   65 1
  51   21   22 1
  52   21   23 am
  53   22   25 ar
  54   22   29 ar
  55   23   24 am
  56   23   30 2
  57   24   25 1
  58   24   66 1
  59   25   26 ar
  60   26   27 ar
  61   26   67 1
  62   27   28 ar
  63   27   68 1
  64   28   29 ar
  65   28   69 1
  66   29   70 1
  67   31   32 1
  68   31   36 1
  69   32   33 1
  70   32   34 1
  71   32   35 1
  72   33   71 1
  73   33   72 1
  74   33   73 1
  75   34   74 1
  76   34   75 1
  77   34   76 1
  78   35   77 1
  79   35   78 1
  80   35   79 1
  81   36   37 2
  82   38   39 1
  83   38   80 1
  84   38   81 1
  85   39   40 1
  86   39   82 1
  87   39   83 1
  88   40   84 1
  89   40   85 1

#	End of record

