#	Name: ASD04230098
#	Creating user name:	WinNT
#	Creation time:	15. 06. 2019 20:48

#	Modifying user name:	WinNT
#	Modification time:	15. 06. 2019 20:48

#	Program:	/corina/corina34_cracker 3.40 0067  02.08.2006

@<TRIPOS>MOLECULE
ASD04230098
  43   46    0    0    0
SMALL
NO_CHARGES


@<TRIPOS>ATOM
   1 C1             1.5360     4.6862     1.7198 C.ar    
   2 C2             2.5439     5.3841     2.3695 C.ar    
   3 C3             3.8005     4.8590     2.4681 C.ar    
   4 C4             4.0825     3.6081     1.9003 C.ar    
   5 C5             3.0564     2.8818     1.2692 C.ar    
   6 C6             1.7832     3.4397     1.1726 C.ar    
   7 C7             5.3934     3.0678     1.9619 C.2     
   8 C8             5.6628     1.9284     1.2154 C.2     
   9 C9             4.5671     1.3877     0.3904 C.2     
  10 O10            3.2979     1.6422     0.7794 O.3     
  11 C11            6.9879     1.2871     1.2463 C.2     
  12 N12            7.2188     0.1818     0.5104 N.am    
  13 O13            7.8740     1.7548     1.9357 O.2     
  14 C14            8.5059    -0.3623     0.4509 C.ar    
  15 C15            8.6753    -1.7391     0.3687 C.ar    
  16 C16            9.9456    -2.2809     0.3096 C.ar    
  17 C17           11.0533    -1.4579     0.3315 C.ar    
  18 C18           10.8933    -0.0746     0.4134 C.ar    
  19 C19            9.6133     0.4724     0.4681 C.ar    
  20 C20           12.0814     0.8108     0.4370 C.ar    
  21 O21            4.7981     0.7334    -0.6092 O.2     
  22 O22            0.7869     2.7610     0.5436 O.3     
  23 C23           13.1362     0.5559     1.3320 C.ar    
  24 C24           14.2491     1.3981     1.3426 C.ar    
  25 C25           14.3087     2.4717     0.4789 C.ar    
  26 C26           13.2692     2.7216    -0.4019 C.ar    
  27 C27           12.1630     1.8965    -0.4303 C.ar    
  28 C28           13.0685    -0.5601     2.2267 C.1     
  29 N29           13.0147    -1.4455     2.9365 N.1     
  30 H30            0.5488     5.1178     1.6445 H       
  31 H31            2.3328     6.3514     2.8009 H       
  32 H32            4.5764     5.4066     2.9824 H       
  33 H33            6.1576     3.5287     2.5701 H       
  34 H34            6.4924    -0.2364     0.0222 H       
  35 H35            7.8119    -2.3877     0.3512 H       
  36 H36           10.0717    -3.3517     0.2465 H       
  37 H37           12.0442    -1.8850     0.2855 H       
  38 H38            9.4839     1.5427     0.5316 H       
  39 H39            0.2742     2.1849     1.1270 H       
  40 H40           15.0630     1.2094     2.0270 H       
  41 H41           15.1710     3.1219     0.4897 H       
  42 H42           13.3265     3.5652    -1.0738 H       
  43 H43           11.3567     2.0981    -1.1201 H       
@<TRIPOS>BOND
   1    1    2 ar
   2    1    6 ar
   3    1   30 1
   4    2    3 ar
   5    2   31 1
   6    3    4 ar
   7    3   32 1
   8    4    5 ar
   9    4    7 1
  10    5    6 ar
  11    5   10 1
  12    6   22 1
  13    7    8 2
  14    7   33 1
  15    8    9 1
  16    8   11 1
  17    9   10 1
  18    9   21 2
  19   11   12 am
  20   11   13 2
  21   12   14 1
  22   12   34 1
  23   14   15 ar
  24   14   19 ar
  25   15   16 ar
  26   15   35 1
  27   16   17 ar
  28   16   36 1
  29   17   18 ar
  30   17   37 1
  31   18   19 ar
  32   18   20 1
  33   19   38 1
  34   20   23 ar
  35   20   27 ar
  36   22   39 1
  37   23   24 ar
  38   23   28 1
  39   24   25 ar
  40   24   40 1
  41   25   26 ar
  42   25   41 1
  43   26   27 ar
  44   26   42 1
  45   27   43 1
  46   28   29 3

#	End of record

