#	Name: ASD02198662
#	Creating user name:	WinNT
#	Creation time:	15. 06. 2019 20:19

#	Modifying user name:	WinNT
#	Modification time:	15. 06. 2019 20:19

#	Program:	/corina/corina34_cracker 3.40 0067  02.08.2006

@<TRIPOS>MOLECULE
ASD02198662
  45   46    0    0    0
SMALL
NO_CHARGES


@<TRIPOS>ATOM
   1 C1             1.0557     1.4526     1.6961 C.3     
   2 N2            -0.6921     3.5976    -0.2866 N.pl3   
   3 N3             0.4646     4.1513    -0.1476 N.2     
   4 C4             1.5300     3.4057     0.0933 C.2     
   5 C5             1.3810     1.9696     0.3185 C.2     
   6 C6            -1.8320     4.3897    -0.4327 C.ar    
   7 C7            -4.2089     4.5775    -0.7272 C.ar    
   8 C8            -4.0972     5.9615    -0.7228 C.ar    
   9 C9            -2.8483     6.5589    -0.5786 C.ar    
  10 C10           -1.7203     5.7756    -0.4341 C.ar    
  11 C11            2.8642     4.0216     0.1347 C.2     
  12 O12            1.5192     1.1930    -0.6042 O.2     
  13 C13           -3.0804     3.7924    -0.5826 C.ar    
  14 O14            0.8460     0.0403     1.6377 O.3     
  15 C15            0.5296    -0.5530     2.8986 C.3     
  16 O16            3.0016     5.3466    -0.0730 O.3     
  17 O17            3.8435     3.3363     0.3562 O.2     
  18 F18           -3.1890     2.4458    -0.5873 F       
  19 F19           -2.7404     7.9056    -0.5749 F       
  20 N20           -5.2392     6.7553    -0.8691 N.3     
  21 C21           -5.9109     6.4815    -2.1478 C.3     
  22 C22           -7.1846     7.3259    -2.2400 C.3     
  23 O23           -6.8464     8.7075    -2.0911 O.3     
  24 C24           -6.1911     9.0100    -0.8564 C.3     
  25 C25           -4.9074     8.1826    -0.7501 C.3     
  26 C26            4.3485     5.8863    -0.0175 C.3     
  27 H27            1.8842     1.6693     2.3705 H       
  28 H28            0.1519     1.9393     2.0628 H       
  29 H29           -0.7698     2.6307    -0.2896 H       
  30 H30           -5.1781     4.1144    -0.8388 H       
  31 H31           -0.7514     6.2395    -0.3219 H       
  32 H32            0.3854    -1.6256     2.7695 H       
  33 H33            1.3471    -0.3779     3.5979 H       
  34 H34           -0.3851    -0.1079     3.2902 H       
  35 H35           -5.2442     6.7373    -2.9713 H       
  36 H36           -6.1703     5.4243    -2.2035 H       
  37 H37           -7.6558     7.1691    -3.2103 H       
  38 H38           -7.8740     7.0326    -1.4483 H       
  39 H39           -5.9438    10.0711    -0.8260 H       
  40 H40           -6.8516     8.7656    -0.0244 H       
  41 H41           -4.4342     8.3672     0.2143 H       
  42 H42           -4.2246     8.4656    -1.5513 H       
  43 H43            4.9643     5.4053    -0.7774 H       
  44 H44            4.3174     6.9602    -0.2013 H       
  45 H45            4.7748     5.6986     0.9679 H       
@<TRIPOS>BOND
   1    1   14 1
   2    1    5 1
   3    1   27 1
   4    1   28 1
   5    2    3 1
   6    2    6 1
   7    2   29 1
   8    3    4 2
   9    4    5 1
  10    4   11 1
  11    5   12 2
  12    6   13 ar
  13    6   10 ar
  14    7    8 ar
  15    7   13 ar
  16    7   30 1
  17    8    9 ar
  18    8   20 1
  19    9   10 ar
  20    9   19 1
  21   10   31 1
  22   11   16 1
  23   11   17 2
  24   13   18 1
  25   14   15 1
  26   15   32 1
  27   15   33 1
  28   15   34 1
  29   16   26 1
  30   20   21 1
  31   20   25 1
  32   21   22 1
  33   21   35 1
  34   21   36 1
  35   22   23 1
  36   22   37 1
  37   22   38 1
  38   23   24 1
  39   24   25 1
  40   24   39 1
  41   24   40 1
  42   25   41 1
  43   25   42 1
  44   26   43 1
  45   26   44 1
  46   26   45 1

#	End of record

