#	Name: ASD01883986
#	Creating user name:	WinNT
#	Creation time:	15. 06. 2019 19:47

#	Modifying user name:	WinNT
#	Modification time:	15. 06. 2019 19:47

#	Program:	/corina/corina34_cracker 3.40 0067  02.08.2006

@<TRIPOS>MOLECULE
ASD01883986
  52   54    0    0    0
SMALL
NO_CHARGES


@<TRIPOS>ATOM
   1 C1            -0.3572     1.4869     0.1296 C.3     
   2 C2            -0.0141     0.0012     0.0032 C.3     
   3 C3             0.7573    -0.4515     1.2446 C.3     
   4 C4            -1.3045    -0.8116    -0.1198 C.3     
   5 O5             0.7911    -0.2045    -1.1592 O.3     
   6 C6             1.9464     0.5051    -1.2427 C.ar    
   7 C7             2.3540     1.2930    -0.1739 C.ar    
   8 C8             3.5254     2.0145    -0.2544 C.ar    
   9 C9             4.3032     1.9523    -1.4128 C.ar    
  10 C10            3.8900     1.1586    -2.4851 C.ar    
  11 C11            2.7197     0.4364    -2.3945 C.ar    
  12 C12            5.5593     2.7244    -1.5037 C.2     
  13 C13            5.7528     4.0429    -1.1235 C.2     
  14 Cl14           4.5506     5.0927    -0.4406 Cl      
  15 N15            7.0211     4.3651    -1.3726 N.2     
  16 C16            7.6374     3.3381    -1.8868 C.2     
  17 C17            9.0363     3.1747    -2.3286 C.2     
  18 O18            9.8872     4.0083    -2.0818 O.2     
  19 N19            9.3226     2.0482    -3.0223 N.am    
  20 C20           10.7235     1.7177    -3.2955 C.3     
  21 C21           11.2766     0.8592    -2.1563 C.3     
  22 C22           12.7396     0.5141    -2.4417 C.3     
  23 C23           13.2926    -0.3445    -1.3024 C.3     
  24 F24           12.5463    -1.5235    -1.2024 F       
  25 F25           14.6304    -0.6600    -1.5634 F       
  26 F26           13.2069     0.3652    -0.0998 F       
  27 C27            8.2766     1.1534    -3.5052 C.3     
  28 C28            7.1486     0.9733    -2.4888 C.3     
  29 N29            6.7523     2.2821    -1.9701 N.pl3   
  30 H30            0.5547     2.0785     0.0487 H       
  31 H31           -1.0457     1.7698    -0.6666 H       
  32 H32           -0.8250     1.6707     1.0968 H       
  33 H33            0.3177     0.0042     2.1318 H       
  34 H34            0.7044    -1.5369     1.3295 H       
  35 H35            1.7994    -0.1443     1.1568 H       
  36 H36           -1.8541    -0.4891    -1.0042 H       
  37 H37           -1.0601    -1.8700    -0.2098 H       
  38 H38           -1.9187    -0.6546     0.7669 H       
  39 H39            1.7519     1.3405     0.7215 H       
  40 H40            3.8412     2.6274     0.5768 H       
  41 H41            4.4885     1.1081    -3.3827 H       
  42 H42            2.4015    -0.1809    -3.2216 H       
  43 H43           10.7903     1.1648    -4.2325 H       
  44 H44           11.3049     2.6364    -3.3735 H       
  45 H45           11.2098     1.4121    -1.2193 H       
  46 H46           10.6951    -0.0595    -2.0783 H       
  47 H47           12.8063    -0.0388    -3.3787 H       
  48 H48           13.3210     1.4327    -2.5196 H       
  49 H49            7.8602     1.5618    -4.4260 H       
  50 H50            8.7166     0.1797    -3.7204 H       
  51 H51            6.2953     0.4975    -2.9722 H       
  52 H52            7.4963     0.3495    -1.6654 H       
@<TRIPOS>BOND
   1    1    2 1
   2    1   30 1
   3    1   31 1
   4    1   32 1
   5    2    3 1
   6    2    4 1
   7    2    5 1
   8    3   33 1
   9    3   34 1
  10    3   35 1
  11    4   36 1
  12    4   37 1
  13    4   38 1
  14    5    6 1
  15    6   11 ar
  16    6    7 ar
  17    7    8 ar
  18    7   39 1
  19    8    9 ar
  20    8   40 1
  21    9   10 ar
  22    9   12 1
  23   10   11 ar
  24   10   41 1
  25   11   42 1
  26   12   29 1
  27   12   13 2
  28   13   14 1
  29   13   15 1
  30   15   16 2
  31   16   29 1
  32   16   17 1
  33   17   18 2
  34   17   19 am
  35   19   20 1
  36   19   27 1
  37   20   21 1
  38   20   43 1
  39   20   44 1
  40   21   22 1
  41   21   45 1
  42   21   46 1
  43   22   23 1
  44   22   47 1
  45   22   48 1
  46   23   24 1
  47   23   25 1
  48   23   26 1
  49   27   28 1
  50   27   49 1
  51   27   50 1
  52   28   29 1
  53   28   51 1
  54   28   52 1

#	End of record

