#	Name: ASD03081152
#	Creating user name:	WinNT
#	Creation time:	15. 06. 2019 20:27

#	Modifying user name:	WinNT
#	Modification time:	15. 06. 2019 20:27

#	Program:	/corina/corina34_cracker 3.40 0067  02.08.2006

@<TRIPOS>MOLECULE
ASD03081152
  29   32    0    0    0
SMALL
NO_CHARGES


@<TRIPOS>ATOM
   1 O1            -0.0144     1.2085     0.0087 O.3     
   2 N2             0.0021    -0.0041     0.0020 N.2     
   3 C3             1.2354    -0.4419    -0.0121 C.2     
   4 N4             2.0458     0.6373    -0.0141 N.2     
   5 C5             1.2409     1.6830    -0.0008 C.2     
   6 C6             2.4413    -4.5005    -0.0445 C.2     
   7 C7             3.4236    -3.4881    -0.0484 C.2     
   8 C8             3.0407    -2.1856    -0.0382 C.2     
   9 C9             1.6636    -1.8625    -0.0238 C.2     
  10 C10            0.7312    -2.8540    -0.0203 C.2     
  11 N11            1.1126    -4.1619    -0.0305 N.pl3   
  12 N12            2.5271    -5.8230    -0.0467 N.2     
  13 C13            1.2970    -6.3427    -0.0404 C.2     
  14 C14            0.4013    -5.3318    -0.0295 C.2     
  15 C15            2.9948     3.4592    -0.0091 C.ar    
  16 C16            1.6448     3.1052     0.0023 C.ar    
  17 C17            0.6799     4.1185     0.0162 C.ar    
  18 C18            1.1113     5.4358     0.0180 C.ar    
  19 C19            2.4706     5.7031     0.0061 C.ar    
  20 N20            3.3561     4.7252    -0.0069 N.ar    
  21 F21            0.2162     6.4477     0.0308 F       
  22 H22            4.4720    -3.7471    -0.0590 H       
  23 H23            3.7829    -1.4010    -0.0406 H       
  24 H24           -0.3189    -2.6020    -0.0090 H       
  25 H25            1.0581    -7.3960    -0.0409 H       
  26 H26           -0.6743    -5.4283    -0.0200 H       
  27 H27            3.7501     2.6873    -0.0154 H       
  28 H28           -0.3735     3.8804     0.0249 H       
  29 H29            2.8107     6.7281     0.0075 H       
@<TRIPOS>BOND
   1    1    2 1
   2    1    5 1
   3    2    3 2
   4    3    4 1
   5    3    9 1
   6    4    5 2
   7    5   16 1
   8    6    7 1
   9    6   11 1
  10    6   12 2
  11    7    8 2
  12    7   22 1
  13    8    9 1
  14    8   23 1
  15    9   10 2
  16   10   11 1
  17   10   24 1
  18   11   14 1
  19   12   13 1
  20   13   14 2
  21   13   25 1
  22   14   26 1
  23   15   16 ar
  24   15   20 ar
  25   15   27 1
  26   16   17 ar
  27   17   18 ar
  28   17   28 1
  29   18   19 ar
  30   18   21 1
  31   19   20 ar
  32   19   29 1

#	End of record

