#	Name: ASD03430769
#	Creating user name:	WinNT
#	Creation time:	15. 06. 2019 20:41

#	Modifying user name:	WinNT
#	Modification time:	15. 06. 2019 20:41

#	Program:	/corina/corina34_cracker 3.40 0067  02.08.2006

@<TRIPOS>MOLECULE
ASD03430769
  57   61    0    0    0
SMALL
NO_CHARGES


@<TRIPOS>ATOM
   1 C1             0.0689     1.4402    -0.6660 C.ar    
   2 C2             0.1187     0.0809    -0.9105 C.ar    
   3 C3             1.2945    -0.6145    -0.7253 C.ar    
   4 C4             2.4417     0.0374    -0.2803 C.ar    
   5 C5             2.3884     1.4067    -0.0401 C.ar    
   6 C6             1.2082     2.1038    -0.2324 C.ar    
   7 O7             3.4801    -0.8333    -0.1362 O.3     
   8 C8             1.6719    -2.0580    -0.9239 C.3     
   9 C9             3.2062    -2.0287    -0.8920 C.3     
  10 C10            0.3439    -3.9023    -0.5292 C.ar    
  11 C11            1.1066    -2.9491     0.1417 C.ar    
  12 C12            1.1516    -2.6086    -2.2207 C.2     
  13 N13            0.3907    -3.6759    -1.9068 N.am    
  14 O14            1.3724    -2.1771    -3.3325 O.2     
  15 C15            1.2087    -2.9737     1.5143 C.ar    
  16 C16            0.5511    -3.9507     2.2411 C.ar    
  17 C17           -0.2085    -4.9018     1.5855 C.ar    
  18 C18           -0.3141    -4.8815     0.2101 C.ar    
  19 O19            1.1649     3.4414     0.0038 O.3     
  20 C20           -0.1110     4.0770    -0.0972 C.3     
  21 C21           -0.1481     5.3853     0.7362 C.3     
  22 C22           -1.2181     6.2274     0.0100 C.3     
  23 N23           -1.3206     5.7128    -1.3634 N.am    
  24 C24           -0.3518     4.6141    -1.5301 C.3     
  25 C25           -2.1616     6.1692    -2.3126 C.2     
  26 O26           -3.0031     7.1830    -2.0353 O.3     
  27 O27           -2.1603     5.6658    -3.4185 O.2     
  28 C28           -3.8805     7.6228    -3.1054 C.3     
  29 C29           -4.7702     6.4588    -3.5464 C.3     
  30 C30           -4.7565     8.7736    -2.6063 C.3     
  31 C31           -3.0393     8.0994    -4.2912 C.3     
  32 H32           -0.8517     1.9847    -0.8159 H       
  33 H33           -0.7664    -0.4382    -1.2473 H       
  34 H34            3.2717     1.9280     0.2982 H       
  35 H35            3.6129    -1.9508    -1.9003 H       
  36 H36            3.5996    -2.9079    -0.3817 H       
  37 H37           -0.0705    -4.2233    -2.5614 H       
  38 H38            1.8030    -2.2300     2.0245 H       
  39 H39            0.6314    -3.9703     3.3180 H       
  40 H40           -0.7215    -5.6644     2.1527 H       
  41 H41           -0.9092    -5.6279    -0.2950 H       
  42 H42           -0.9084     3.3983     0.2054 H       
  43 H43           -0.4505     5.1799     1.7631 H       
  44 H44            0.8196     5.8862     0.7108 H       
  45 H45           -2.1776     6.1248     0.5169 H       
  46 H46           -0.9163     7.2747    -0.0081 H       
  47 H47            0.5786     4.9901    -1.9557 H       
  48 H48           -0.7707     3.8318    -2.1631 H       
  49 H49           -5.3695     6.1193    -2.7016 H       
  50 H50           -5.4288     6.7890    -4.3497 H       
  51 H51           -4.1461     5.6390    -3.9020 H       
  52 H52           -4.1226     9.6029    -2.2921 H       
  53 H53           -5.4151     9.1038    -3.4096 H       
  54 H54           -5.3558     8.4341    -1.7615 H       
  55 H55           -2.4152     7.2796    -4.6469 H       
  56 H56           -3.6979     8.4296    -5.0946 H       
  57 H57           -2.4054     8.9287    -3.9771 H       
@<TRIPOS>BOND
   1    1    2 ar
   2    1    6 ar
   3    1   32 1
   4    2    3 ar
   5    2   33 1
   6    3    4 ar
   7    3    8 1
   8    4    5 ar
   9    4    7 1
  10    5    6 ar
  11    5   34 1
  12    6   19 1
  13    7    9 1
  14    8    9 1
  15    8   11 1
  16    8   12 1
  17    9   35 1
  18    9   36 1
  19   10   11 ar
  20   10   13 1
  21   10   18 ar
  22   11   15 ar
  23   12   13 am
  24   12   14 2
  25   13   37 1
  26   15   16 ar
  27   15   38 1
  28   16   17 ar
  29   16   39 1
  30   17   18 ar
  31   17   40 1
  32   18   41 1
  33   19   20 1
  34   20   21 1
  35   20   24 1
  36   20   42 1
  37   21   22 1
  38   21   43 1
  39   21   44 1
  40   22   23 1
  41   22   45 1
  42   22   46 1
  43   23   24 1
  44   23   25 am
  45   24   47 1
  46   24   48 1
  47   25   26 1
  48   25   27 2
  49   26   28 1
  50   28   29 1
  51   28   30 1
  52   28   31 1
  53   29   49 1
  54   29   50 1
  55   29   51 1
  56   30   52 1
  57   30   53 1
  58   30   54 1
  59   31   55 1
  60   31   56 1
  61   31   57 1

#	End of record

