#	Name: ASD08150665
#	Creating user name:	WinNT
#	Creation time:	15. 06. 2019 21:16

#	Modifying user name:	WinNT
#	Modification time:	15. 06. 2019 21:16

#	Program:	/corina/corina34_cracker 3.40 0067  02.08.2006

@<TRIPOS>MOLECULE
ASD08150665
  59   64    0    0    0
SMALL
NO_CHARGES


@<TRIPOS>ATOM
   1 N1             0.1304     1.4304     2.1903 N.am    
   2 C2             0.1390     0.0995     2.3988 C.2     
   3 C3             1.3528    -0.6130     2.4764 C.2     
   4 C4             2.5366     0.0374     2.3411 C.2     
   5 C5             2.5312     1.4375     2.1212 C.ar    
   6 C6             3.7305     2.1602     1.9736 C.ar    
   7 N7             3.7225     3.4517     1.7704 N.ar    
   8 C8             2.5850     4.1587     1.6911 C.ar    
   9 C9             1.3311     3.5138     1.8279 C.ar    
  10 C10            1.3051     2.1167     2.0492 C.ar    
  11 C11            0.1515     4.2597     1.7441 C.ar    
  12 C12            0.2224     5.6262     1.5273 C.ar    
  13 C13            1.4667     6.2574     1.3929 C.ar    
  14 C14            2.6228     5.5455     1.4721 C.ar    
  15 O15           -0.9174    -0.4967     2.5224 O.2     
  16 C16           -1.0244     6.4250     1.4366 C.ar    
  17 C17           -1.0896     2.1149     2.1117 C.ar    
  18 C18           -1.7992     2.1347     0.9177 C.ar    
  19 C19           -3.0008     2.8088     0.8402 C.ar    
  20 C20           -3.5011     3.4675     1.9566 C.ar    
  21 C21           -2.7916     3.4473     3.1505 C.ar    
  22 C22           -1.5920     2.7688     3.2291 C.ar    
  23 N23           -4.7181     4.1509     1.8780 N.3     
  24 C24           -1.0676     7.7322     1.9289 C.ar    
  25 C25           -2.2549     8.4359     1.8198 C.ar    
  26 C26           -3.3498     7.8286     1.2329 C.ar    
  27 N27           -3.2789     6.5925     0.7775 N.ar    
  28 C28           -2.1699     5.8860     0.8538 C.ar    
  29 C29           -5.8137     3.3404     2.4279 C.3     
  30 C30           -7.1108     4.1522     2.3966 C.3     
  31 N31           -7.4004     4.5548     1.0133 N.3     
  32 C32           -6.3048     5.3654     0.4634 C.3     
  33 C33           -5.0077     4.5536     0.4947 C.3     
  34 C34           -3.3340     4.1617     4.3616 C.3     
  35 F35           -2.3846     4.1254     5.3885 F       
  36 F36           -3.6137     5.4922     4.0318 F       
  37 F37           -4.5073     3.5306     4.7886 F       
  38 H38            1.3409    -1.6798     2.6444 H       
  39 H39            3.4691    -0.5042     2.4005 H       
  40 H40            4.6743     1.6382     2.0297 H       
  41 H41           -0.8077     3.7743     1.8472 H       
  42 H42            1.5079     7.3233     1.2239 H       
  43 H43            3.5729     6.0482     1.3665 H       
  44 H44           -1.4103     1.6226     0.0499 H       
  45 H45           -3.5522     2.8247    -0.0884 H       
  46 H46           -1.0423     2.7496     4.1586 H       
  47 H47           -0.1971     8.1819     2.3832 H       
  48 H48           -2.3254     9.4482     2.1896 H       
  49 H49           -4.2775     8.3746     1.1462 H       
  50 H50           -2.1507     4.8769     0.4694 H       
  51 H51           -5.9348     2.4381     1.8284 H       
  52 H52           -5.5816     3.0653     3.4567 H       
  53 H53           -7.9305     3.5428     2.7772 H       
  54 H54           -6.9988     5.0406     3.0181 H       
  55 H55           -7.5811     3.7497     0.4326 H       
  56 H56           -6.5369     5.6405    -0.5654 H       
  57 H57           -6.1836     6.2676     1.0629 H       
  58 H58           -4.1880     5.1630     0.1142 H       
  59 H59           -5.1197     3.6651    -0.1268 H       
@<TRIPOS>BOND
   1    1    2 am
   2    1   10 1
   3    1   17 1
   4    2    3 1
   5    2   15 2
   6    3    4 2
   7    3   38 1
   8    4    5 1
   9    4   39 1
  10    5    6 ar
  11    5   10 ar
  12    6    7 ar
  13    6   40 1
  14    7    8 ar
  15    8    9 ar
  16    8   14 ar
  17    9   10 ar
  18    9   11 ar
  19   11   12 ar
  20   11   41 1
  21   12   13 ar
  22   12   16 1
  23   13   14 ar
  24   13   42 1
  25   14   43 1
  26   16   24 ar
  27   16   28 ar
  28   17   18 ar
  29   17   22 ar
  30   18   19 ar
  31   18   44 1
  32   19   20 ar
  33   19   45 1
  34   20   21 ar
  35   20   23 1
  36   21   22 ar
  37   21   34 1
  38   22   46 1
  39   23   29 1
  40   23   33 1
  41   24   25 ar
  42   24   47 1
  43   25   26 ar
  44   25   48 1
  45   26   27 ar
  46   26   49 1
  47   27   28 ar
  48   28   50 1
  49   29   30 1
  50   29   51 1
  51   29   52 1
  52   30   31 1
  53   30   53 1
  54   30   54 1
  55   31   32 1
  56   31   55 1
  57   32   33 1
  58   32   56 1
  59   32   57 1
  60   33   58 1
  61   33   59 1
  62   34   35 1
  63   34   36 1
  64   34   37 1

#	End of record

