#	Name: ASD06590011
#	Creating user name:	WinNT
#	Creation time:	15. 06. 2019 21:06

#	Modifying user name:	WinNT
#	Modification time:	15. 06. 2019 21:06

#	Program:	/corina/corina34_cracker 3.40 0067  02.08.2006

@<TRIPOS>MOLECULE
ASD06590011
 352  351    0    0    0
SMALL
NO_CHARGES


@<TRIPOS>ATOM
   1 C1            -1.9193     9.2288     9.7284 C.2     
   2 O2            -1.7758     8.0247     9.7533 O.2     
   3 N3             0.2074     9.3766    10.8946 N.3     
   4 C4            -0.7728    10.1322    10.1032 C.3     
   5 C5            -0.1039    10.6610     8.8329 C.3     
   6 C6             0.9624    11.6589     9.2049 C.2     
   7 O7             1.1671    11.9211    10.3706 O.2     
   8 N8             1.6885    12.2598     8.2415 N.am    
   9 C9            -5.1549     9.6202     8.0728 C.2     
  10 O10           -4.9184    10.7677     7.7592 O.2     
  11 N11           -3.1025     9.7589     9.3602 N.am    
  12 C12           -4.2152     8.8808     8.9900 C.3     
  13 C13           -4.9669     8.4507    10.2513 C.3     
  14 C14           -5.5105     9.6884    10.9680 C.3     
  15 C15           -6.3665     9.2531    12.1591 C.3     
  16 C16           -4.0128     7.7001    11.1826 C.3     
  17 C17           -8.5496     9.1236     6.8108 C.2     
  18 O18           -8.7167     8.0907     7.4241 O.2     
  19 N19           -6.2580     9.0063     7.6009 N.am    
  20 C20           -7.1715     9.7251     6.7092 C.3     
  21 C21           -6.6710     9.6126     5.2678 C.3     
  22 C22           -5.3317    10.3403     5.1348 C.3     
  23 C23           -6.4881     8.1375     4.9051 C.3     
  24 C24          -11.7237     9.5973     5.0605 C.2     
  25 O25          -11.2443    10.4055     4.2938 O.2     
  26 N26           -9.5963     9.7335     6.2201 N.am    
  27 C27          -10.9159     9.0973     6.2304 C.3     
  28 C28          -11.6385     9.4428     7.5340 C.3     
  29 C29          -10.8835     8.8277     8.7140 C.3     
  30 C30          -11.6060     9.1731    10.0177 C.3     
  31 N31          -10.8831     8.5842    11.1476 N.pl3   
  32 C32          -11.3480     8.7622    12.4291 C.2     
  33 N33          -10.7048     8.2382    13.4344 N.2     
  34 N34          -12.4914     9.4929    12.6503 N.pl3   
  35 C35          -15.2329     9.5028     4.0408 C.2     
  36 O36          -15.5901     8.9514     5.0603 O.2     
  37 N37          -12.9789     9.1464     4.8664 N.am    
  38 C38          -13.7642     9.6325     3.7292 C.3     
  39 C39          -13.4310     8.8029     2.4876 C.3     
  40 C40          -14.2074     9.3475     1.2869 C.3     
  41 C41          -11.9297     8.8879     2.2052 C.3     
  42 C42          -18.3533     9.9580     2.1715 C.2     
  43 O43          -17.8474    10.5069     1.2156 O.2     
  44 N44          -16.1494     9.9994     3.1866 N.am    
  45 C45          -17.5776     9.8141     3.4555 C.3     
  46 C46          -18.0491    10.8700     4.4573 C.3     
  47 C47          -19.5025    10.5914     4.8457 C.3     
  48 C48          -19.5791     9.2774     5.6257 C.3     
  49 C49          -20.0251    11.7340     5.7189 C.3     
  50 C50          -21.8125     9.5304     1.0697 C.2     
  51 O51          -22.2290     9.4911     2.2080 O.2     
  52 N52          -19.6092     9.4767     2.0855 N.am    
  53 C53          -20.3281     9.5293     0.8100 C.3     
  54 C54          -19.9589     8.3079    -0.0342 C.3     
  55 C55          -24.8412     9.0253    -0.9140 C.2     
  56 O56          -24.2115     8.6670    -1.8866 O.2     
  57 N57          -22.6773     9.5751     0.0369 N.am    
  58 C58          -24.1204     9.5762     0.2893 C.3     
  59 C59          -24.5906    11.0078     0.5543 C.3     
  60 C60          -23.7710    11.6106     1.6970 C.3     
  61 O61          -24.4127    11.7938    -0.6258 O.3     
  62 C62          -28.2941     8.9324    -2.1108 C.2     
  63 O63          -28.6744     9.6882    -1.2419 O.2     
  64 N64          -26.1857     8.9307    -0.9092 N.am    
  65 C65          -26.8864     8.3952    -2.0790 C.3     
  66 C66          -26.9252     6.8679    -1.9952 C.3     
  67 C67          -25.5014     6.3157    -2.0885 C.3     
  68 C68          -25.5401     4.7885    -2.0047 C.3     
  69 C69          -24.1163     4.2363    -2.0980 C.3     
  70 N70          -24.1535     2.7700    -2.0176 N.3     
  71 C71          -31.3821     8.1441    -3.9012 C.2     
  72 O72          -30.9148     7.1299    -4.3743 O.2     
  73 N73          -29.1302     8.5729    -3.1048 N.am    
  74 C74          -30.4986     9.0952    -3.1357 C.3     
  75 C75          -30.5071    10.4629    -3.8213 C.3     
  76 C76          -29.7118    11.4613    -2.9777 C.3     
  77 C77          -29.6145    12.7944    -3.7221 C.3     
  78 C78          -30.4201    11.6754    -1.6385 C.3     
  79 C79          -34.7300     8.2475    -5.3654 C.2     
  80 O80          -34.8422     9.4381    -5.1637 O.2     
  81 N81          -32.6916     8.4206    -4.0600 N.am    
  82 C82          -33.5505     7.4960    -4.8041 C.3     
  83 C83          -34.0473     6.3943    -3.8659 C.3     
  84 C84          -32.8600     5.5527    -3.3937 C.3     
  85 C85          -33.3568     4.4510    -2.4555 C.3     
  86 N86          -32.2199     3.6452    -2.0034 N.pl3   
  87 C87          -32.4231     2.5892    -1.1468 C.2     
  88 N88          -31.4116     1.8723    -0.7445 N.2     
  89 N89          -33.6933     2.2895    -0.7144 N.pl3   
  90 C90          -37.9555     7.3743    -6.8476 C.2     
  91 O91          -37.8287     6.2007    -6.5693 O.2     
  92 N92          -35.6603     7.5964    -6.0915 N.am    
  93 C93          -36.8069     8.3269    -6.6372 C.3     
  94 C94          -36.4184     8.9607    -7.9744 C.3     
  95 C95          -35.3376    10.0186    -7.7426 C.3     
  96 C96          -34.9549    10.6428    -9.0597 C.2     
  97 O97          -35.4915    10.2789   -10.0793 O.2     
  98 O98          -34.0179    11.6031    -9.1003 O.3     
  99 C99          -41.1507     7.4406    -8.6223 C.2     
 100 O100         -40.9133     8.5134    -9.1356 O.2     
 101 N101         -39.1235     7.8265    -7.3452 N.am    
 102 C102         -40.2401     6.9004    -7.5498 C.3     
 103 C103         -41.0233     6.7495    -6.2442 C.3     
 104 C104         -40.0994     6.1992    -5.1559 C.3     
 105 O105         -41.5276     8.0244    -5.8411 O.3     
 106 C106         -44.4919     7.2177    -9.7397 C.2     
 107 O107         -44.8177     6.8851    -8.6198 O.2     
 108 N108         -42.2289     6.7314    -9.0110 N.am    
 109 C109         -43.0396     7.1913   -10.1412 C.3     
 110 C110         -42.8544     6.2377   -11.3232 C.3     
 111 C111         -41.4247     6.2953   -11.7959 C.2     
 112 O112         -40.6581     7.1011   -11.3122 O.2     
 113 N113         -40.9979     5.4515   -12.7563 N.am    
 114 C114         -47.7037     7.4988   -11.4627 C.2     
 115 O115         -47.1901     7.3899   -12.5559 O.2     
 116 N116         -45.4288     7.6110   -10.6252 N.am    
 117 C117         -46.8406     7.6366   -10.2350 C.3     
 118 C118         -47.1531     8.9623    -9.5381 C.3     
 119 C119         -51.3377     7.3891   -12.1377 C.2     
 120 O120         -51.6420     7.5080   -10.9698 O.2     
 121 N121         -49.0464     7.4966   -11.3457 N.am    
 122 C122         -49.8854     7.3627   -12.5392 C.3     
 123 C123         -54.5315     6.5849   -13.7241 C.2     
 124 O124         -53.9906     6.0975   -14.6940 O.2     
 125 N125         -52.2985     7.2805   -13.0767 N.am    
 126 C126         -53.7103     7.3061   -12.6865 C.3     
 127 C127         -54.1837     8.7571   -12.5797 C.3     
 128 C128         -53.4364     9.4549   -11.4415 C.3     
 129 C129         -53.9097    10.9059   -11.3347 C.3     
 130 N130         -53.1942    11.5741   -10.2449 N.pl3   
 131 C131         -53.4547    12.8933    -9.9585 C.2     
 132 N132         -52.8181    13.4877    -8.9888 N.2     
 133 N133         -54.3868    13.5854   -10.6950 N.pl3   
 134 C134         -58.0805     6.2969   -14.5513 C.2     
 135 O135         -58.3918     7.1651   -13.7637 O.2     
 136 N136         -55.8669     6.4816   -13.5742 N.am    
 137 C137         -56.6651     5.7805   -14.5829 C.3     
 138 C138         -56.6628     4.2802   -14.2826 C.3     
 139 O139         -57.3287     4.0419   -13.0409 O.3     
 140 C140         -61.1569     5.5580   -14.3105 C.2     
 141 O141         -60.6190     4.7007   -13.6505 O.2     
 142 N142         -59.0004     5.7939   -15.3982 N.am    
 143 C143         -60.3764     6.2960   -15.3675 C.3     
 144 C144         -61.0307     6.0743   -16.7326 C.3     
 145 C145         -60.3248     6.9093   -17.7696 C.2     
 146 O146         -59.3938     7.6098   -17.4497 O.2     
 147 O147         -60.7302     6.8747   -19.0487 O.3     
 148 O148         -62.4497     5.8531   -14.1022 O.3     
 149 C149           2.6422    13.1522     8.5741 C.2     
 150 O150           2.8468    13.4144     9.7399 O.2     
 151 C151          16.2565    25.3120     4.3342 C.3     
 152 C152          15.4323    24.6298     5.4279 C.3     
 153 C153          14.4276    23.6709     4.7860 C.3     
 154 C154          13.6033    22.9887     5.8797 C.3     
 155 C155          12.5987    22.0297     5.2378 C.3     
 156 C156          11.7744    21.3476     6.3315 C.3     
 157 C157          10.7698    20.3886     5.6896 C.3     
 158 C158           9.9455    19.7064     6.7833 C.3     
 159 C159           8.9408    18.7475     6.1415 C.3     
 160 C160           8.1165    18.0653     7.2351 C.3     
 161 C161           7.1119    17.1064     6.5933 C.3     
 162 C162           6.2876    16.4242     7.6869 C.3     
 163 C163           5.2830    15.4652     7.0451 C.3     
 164 C164           4.4587    14.7831     8.1387 C.3     
 165 C165           3.4541    13.8241     7.4969 C.3     
 166 H166          -0.1922     9.0714    11.7694 H       
 167 H167           0.5698     8.5945    10.3702 H       
 168 H168          -1.1475    10.9694    10.6921 H       
 169 H169           0.3483     9.8321     8.2883 H       
 170 H170          -0.8507    11.1450     8.2035 H       
 171 H171           1.5248    12.0500     7.3087 H       
 172 H172          -3.2173    10.7219     9.3403 H       
 173 H173          -3.8279     7.9991     8.4794 H       
 174 H174          -5.7947     7.7974     9.9759 H       
 175 H175          -4.6790    10.2980    11.3216 H       
 176 H176          -6.1195    10.2705    10.2764 H       
 177 H177          -6.7538    10.1348    12.6696 H       
 178 H178          -7.1980     8.6435    11.8054 H       
 179 H179          -5.7576     8.6709    12.8507 H       
 180 H180          -3.6255     6.8184    10.6720 H       
 181 H181          -3.1850     8.3534    11.4580 H       
 182 H182          -4.5484     7.3937    12.0811 H       
 183 H183          -6.4472     8.0886     7.8518 H       
 184 H184          -7.2111    10.7751     6.9992 H       
 185 H185          -7.3987    10.0649     4.5941 H       
 186 H186          -4.6039     9.8881     5.8085 H       
 187 H187          -4.9751    10.2602     4.1079 H       
 188 H188          -5.4620    11.3912     5.3932 H       
 189 H189          -5.8272     7.6641     5.6312 H       
 190 H190          -7.4568     7.6379     4.9157 H       
 191 H191          -6.0499     8.0596     3.9101 H       
 192 H192          -9.4758    10.5936     5.7882 H       
 193 H193         -10.7987     8.0162     6.1554 H       
 194 H194         -11.6771    10.5257     7.6520 H       
 195 H195         -12.6525     9.0442     7.5040 H       
 196 H196         -10.8448     7.7448     8.5960 H       
 197 H197          -9.8694     9.2263     8.7441 H       
 198 H198         -11.6447    10.2560    10.1357 H       
 199 H199         -12.6201     8.7745     9.9876 H       
 200 H200         -10.0764     8.0686    10.9916 H       
 201 H201         -11.0328     8.3638    14.3386 H       
 202 H202         -12.9701     9.8829    11.9021 H       
 203 H203         -12.8194     9.6185    13.5544 H       
 204 H204         -13.3623     8.5001     5.4797 H       
 205 H205         -13.5235    10.6790     3.5423 H       
 206 H206         -13.7101     7.7634     2.6595 H       
 207 H207         -13.9058    10.3774     1.0961 H       
 208 H208         -13.9937     8.7377     0.4091 H       
 209 H209         -15.2759     9.3154     1.5003 H       
 210 H210         -11.3766     8.4999     3.0605 H       
 211 H211         -11.6924     8.2968     1.3206 H       
 212 H212         -11.6506     9.9274     2.0332 H       
 213 H213         -15.8635    10.4796     2.3937 H       
 214 H214         -17.7431     8.8199     3.8706 H       
 215 H215         -17.4214    10.8321     5.3476 H       
 216 H216         -17.9773    11.8587     4.0039 H       
 217 H217         -20.1112    10.5151     3.9447 H       
 218 H218         -20.6219     9.0396     5.8356 H       
 219 H219         -19.1360     8.4769     5.0333 H       
 220 H220         -19.0338     9.3796     6.5640 H       
 221 H221         -19.9706    12.6701     5.1632 H       
 222 H222         -21.0605    11.5355     5.9956 H       
 223 H223         -19.4164    11.8103     6.6199 H       
 224 H224         -20.0372     9.0954     2.8680 H       
 225 H225         -20.0522    10.4378     0.2747 H       
 226 H226         -20.4937     8.3470    -0.9832 H       
 227 H227         -18.8852     8.3070    -0.2220 H       
 228 H228         -20.2348     7.3994     0.5011 H       
 229 H229         -22.3441     9.6065    -0.8736 H       
 230 H230         -24.3376     8.9556     1.1586 H       
 231 H231         -25.6454    10.9988     0.8292 H       
 232 H232         -22.7162    11.6197     1.4221 H       
 233 H233         -24.1060    12.6305     1.8858 H       
 234 H234         -23.9067    11.0111     2.5971 H       
 235 H235         -24.6906    12.7151    -0.5304 H       
 236 H236         -26.6893     9.2173    -0.1313 H       
 237 H237         -26.3621     8.6961    -2.9859 H       
 238 H238         -27.3701     6.5672    -1.0467 H       
 239 H239         -27.5223     6.4740    -2.8177 H       
 240 H240         -25.0564     6.6164    -3.0370 H       
 241 H241         -24.9043     6.7097    -1.2660 H       
 242 H242         -25.9851     4.4878    -1.0562 H       
 243 H243         -26.1372     4.3946    -2.8272 H       
 244 H244         -23.6714     4.5370    -3.0465 H       
 245 H245         -23.5192     4.6303    -1.2755 H       
 246 H246         -23.2245     2.3809    -2.0769 H       
 247 H247         -24.6199     2.4657    -1.1762 H       
 248 H248         -28.8260     7.9684    -3.7997 H       
 249 H249         -30.8717     9.1973    -2.1167 H       
 250 H250         -30.0521    10.3776    -4.8081 H       
 251 H251         -31.5348    10.8115    -3.9240 H       
 252 H252         -28.7100    11.0702    -2.8004 H       
 253 H253         -30.6164    13.1855    -3.8994 H       
 254 H254         -29.0480    13.5057    -3.1210 H       
 255 H255         -29.1100    12.6419    -4.6761 H       
 256 H256         -31.4219    12.0665    -1.8158 H       
 257 H257         -30.4894    10.7256    -1.1082 H       
 258 H258         -29.8535    12.3866    -1.0375 H       
 259 H259         -33.0654     9.2317    -3.6816 H       
 260 H260         -32.9824     7.0494    -5.6202 H       
 261 H261         -34.5385     6.8454    -3.0037 H       
 262 H262         -34.7558     5.7578    -4.3959 H       
 263 H263         -32.3687     5.1016    -4.2558 H       
 264 H264         -32.1514     6.1892    -2.8637 H       
 265 H265         -33.8480     4.9021    -1.5934 H       
 266 H266         -34.0653     3.8145    -2.9855 H       
 267 H267         -31.3237     3.8566    -2.3085 H       
 268 H268         -31.5551     1.1273    -0.1401 H       
 269 H269         -34.4461     2.8231    -1.0137 H       
 270 H270         -33.8367     1.5445    -0.1099 H       
 271 H271         -35.5705     6.6441    -6.2528 H       
 272 H272         -37.1061     9.1080    -5.9382 H       
 273 H273         -36.0352     8.1905    -8.6438 H       
 274 H274         -37.2947     9.4288    -8.4229 H       
 275 H275         -35.7207    10.7888    -7.0732 H       
 276 H276         -34.4613     9.5505    -7.2941 H       
 277 H277         -33.8060    11.9734    -9.9681 H       
 278 H278         -39.2249     8.7651    -7.5679 H       
 279 H279         -39.8543     5.9282    -7.8565 H       
 280 H280         -41.8549     6.0616    -6.3968 H       
 281 H281         -39.2517     6.8718    -5.0246 H       
 282 H282         -40.6493     6.1204    -4.2181 H       
 283 H283         -39.7389     5.2134    -5.4497 H       
 284 H284         -42.1220     8.4336    -6.4848 H       
 285 H285         -42.4680     5.9164    -8.5424 H       
 286 H286         -42.7243     8.1939   -10.4303 H       
 287 H287         -43.0930     5.2211   -11.0106 H       
 288 H288         -43.5180     6.5331   -12.1358 H       
 289 H289         -41.6110     4.8071   -13.1432 H       
 290 H290         -40.0776     5.4887   -13.0606 H       
 291 H291         -45.1683     7.8770   -11.5209 H       
 292 H292         -47.0442     6.8109    -9.5532 H       
 293 H293         -48.2036     8.9814    -9.2477 H       
 294 H294         -46.5289     9.0620    -8.6501 H       
 295 H295         -46.9495     9.7880   -10.2198 H       
 296 H296         -49.4572     7.5837   -10.4713 H       
 297 H297         -49.6628     6.4182   -13.0357 H       
 298 H298         -49.6818     8.1884   -13.2209 H       
 299 H299         -52.0551     7.1853   -14.0108 H       
 300 H300         -53.8296     6.8131   -11.7217 H       
 301 H301         -53.9825     9.2749   -13.5176 H       
 302 H302         -55.2544     8.7760   -12.3767 H       
 303 H303         -53.6375     8.9372   -10.5036 H       
 304 H304         -52.3656     9.4360   -11.6445 H       
 305 H305         -53.7085    11.4237   -12.2726 H       
 306 H306         -54.9805    10.9248   -11.1317 H       
 307 H307         -52.5366    11.0857    -9.7253 H       
 308 H308         -53.0019    14.4185    -8.7868 H       
 309 H309         -54.8605    13.1431   -11.4166 H       
 310 H310         -54.5706    14.5162   -10.4929 H       
 311 H311         -56.2994     6.8714   -12.7984 H       
 312 H312         -56.2370     5.9541   -15.5701 H       
 313 H313         -57.1814     3.7491   -15.0808 H       
 314 H314         -55.6346     3.9243   -14.2177 H       
 315 H315         -57.3650     3.1096   -12.7867 H       
 316 H316         -58.7515     5.0996   -16.0281 H       
 317 H317         -60.3694     7.3612   -15.1366 H       
 318 H318         -60.9584     5.0209   -17.0034 H       
 319 H319         -62.0799     6.3657   -16.6842 H       
 320 H320         -60.2465     7.4275   -19.6777 H       
 321 H321         -62.9087     5.3531   -13.4134 H       
 322 H322          16.7918    24.5570     3.7584 H       
 323 H323          15.5928    25.8698     3.6736 H       
 324 H324          16.9723    25.9952     4.7915 H       
 325 H325          16.0960    24.0720     6.0885 H       
 326 H326          14.8970    25.3848     6.0037 H       
 327 H327          13.7639    24.2287     4.1254 H       
 328 H328          14.9629    22.9158     4.2102 H       
 329 H329          14.2671    22.4309     6.5403 H       
 330 H330          13.0681    23.7437     6.4555 H       
 331 H331          11.9350    22.5876     4.5772 H       
 332 H332          13.1339    21.2747     4.6620 H       
 333 H333          12.4381    20.7898     6.9921 H       
 334 H334          11.2392    22.1026     6.9073 H       
 335 H335          10.1060    20.9464     5.0290 H       
 336 H336          11.3050    19.6336     5.1138 H       
 337 H337          10.6092    19.1486     7.4439 H       
 338 H338           9.4102    20.4615     7.3591 H       
 339 H339           8.2771    19.3053     5.4808 H       
 340 H340           9.4761    17.9925     5.5656 H       
 341 H341           8.7803    17.5075     7.8957 H       
 342 H342           7.5813    18.8203     7.8109 H       
 343 H343           6.4482    17.6642     5.9327 H       
 344 H344           7.6472    16.3513     6.0174 H       
 345 H345           6.9514    15.8664     8.3475 H       
 346 H346           5.7524    17.1792     8.2627 H       
 347 H347           4.6193    16.0231     6.3845 H       
 348 H348           5.8182    14.7102     6.4693 H       
 349 H349           5.1224    14.2253     8.7993 H       
 350 H350           3.9235    15.5381     8.7146 H       
 351 H351           3.9893    13.0691     6.9211 H       
 352 H352           2.7903    14.3819     6.8363 H       
@<TRIPOS>BOND
   1    1    2 2
   2    1    4 1
   3    1   11 am
   4    3    4 1
   5    3  166 1
   6    3  167 1
   7    4    5 1
   8    4  168 1
   9    5    6 1
  10    5  169 1
  11    5  170 1
  12    6    7 2
  13    6    8 am
  14    8  149 am
  15    8  171 1
  16    9   10 2
  17    9   12 1
  18    9   19 am
  19   11   12 1
  20   11  172 1
  21   12   13 1
  22   12  173 1
  23   13   14 1
  24   13   16 1
  25   13  174 1
  26   14   15 1
  27   14  175 1
  28   14  176 1
  29   15  177 1
  30   15  178 1
  31   15  179 1
  32   16  180 1
  33   16  181 1
  34   16  182 1
  35   17   18 2
  36   17   20 1
  37   17   26 am
  38   19   20 1
  39   19  183 1
  40   20   21 1
  41   20  184 1
  42   21   22 1
  43   21   23 1
  44   21  185 1
  45   22  186 1
  46   22  187 1
  47   22  188 1
  48   23  189 1
  49   23  190 1
  50   23  191 1
  51   24   25 2
  52   24   27 1
  53   24   37 am
  54   26   27 1
  55   26  192 1
  56   27   28 1
  57   27  193 1
  58   28   29 1
  59   28  194 1
  60   28  195 1
  61   29   30 1
  62   29  196 1
  63   29  197 1
  64   30   31 1
  65   30  198 1
  66   30  199 1
  67   31   32 1
  68   31  200 1
  69   32   33 2
  70   32   34 1
  71   33  201 1
  72   34  202 1
  73   34  203 1
  74   35   36 2
  75   35   38 1
  76   35   44 am
  77   37   38 1
  78   37  204 1
  79   38   39 1
  80   38  205 1
  81   39   40 1
  82   39   41 1
  83   39  206 1
  84   40  207 1
  85   40  208 1
  86   40  209 1
  87   41  210 1
  88   41  211 1
  89   41  212 1
  90   42   43 2
  91   42   45 1
  92   42   52 am
  93   44   45 1
  94   44  213 1
  95   45   46 1
  96   45  214 1
  97   46   47 1
  98   46  215 1
  99   46  216 1
 100   47   48 1
 101   47   49 1
 102   47  217 1
 103   48  218 1
 104   48  219 1
 105   48  220 1
 106   49  221 1
 107   49  222 1
 108   49  223 1
 109   50   51 2
 110   50   53 1
 111   50   57 am
 112   52   53 1
 113   52  224 1
 114   53   54 1
 115   53  225 1
 116   54  226 1
 117   54  227 1
 118   54  228 1
 119   55   56 2
 120   55   58 1
 121   55   64 am
 122   57   58 1
 123   57  229 1
 124   58   59 1
 125   58  230 1
 126   59   60 1
 127   59   61 1
 128   59  231 1
 129   60  232 1
 130   60  233 1
 131   60  234 1
 132   61  235 1
 133   62   63 2
 134   62   65 1
 135   62   73 am
 136   64   65 1
 137   64  236 1
 138   65   66 1
 139   65  237 1
 140   66   67 1
 141   66  238 1
 142   66  239 1
 143   67   68 1
 144   67  240 1
 145   67  241 1
 146   68   69 1
 147   68  242 1
 148   68  243 1
 149   69   70 1
 150   69  244 1
 151   69  245 1
 152   70  246 1
 153   70  247 1
 154   71   72 2
 155   71   74 1
 156   71   81 am
 157   73   74 1
 158   73  248 1
 159   74   75 1
 160   74  249 1
 161   75   76 1
 162   75  250 1
 163   75  251 1
 164   76   77 1
 165   76   78 1
 166   76  252 1
 167   77  253 1
 168   77  254 1
 169   77  255 1
 170   78  256 1
 171   78  257 1
 172   78  258 1
 173   79   80 2
 174   79   82 1
 175   79   92 am
 176   81   82 1
 177   81  259 1
 178   82   83 1
 179   82  260 1
 180   83   84 1
 181   83  261 1
 182   83  262 1
 183   84   85 1
 184   84  263 1
 185   84  264 1
 186   85   86 1
 187   85  265 1
 188   85  266 1
 189   86   87 1
 190   86  267 1
 191   87   88 2
 192   87   89 1
 193   88  268 1
 194   89  269 1
 195   89  270 1
 196   90   91 2
 197   90   93 1
 198   90  101 am
 199   92   93 1
 200   92  271 1
 201   93   94 1
 202   93  272 1
 203   94   95 1
 204   94  273 1
 205   94  274 1
 206   95   96 1
 207   95  275 1
 208   95  276 1
 209   96   97 2
 210   96   98 1
 211   98  277 1
 212   99  100 2
 213   99  102 1
 214   99  108 am
 215  101  102 1
 216  101  278 1
 217  102  103 1
 218  102  279 1
 219  103  104 1
 220  103  105 1
 221  103  280 1
 222  104  281 1
 223  104  282 1
 224  104  283 1
 225  105  284 1
 226  106  107 2
 227  106  109 1
 228  106  116 am
 229  108  109 1
 230  108  285 1
 231  109  110 1
 232  109  286 1
 233  110  111 1
 234  110  287 1
 235  110  288 1
 236  111  112 2
 237  111  113 am
 238  113  289 1
 239  113  290 1
 240  114  115 2
 241  114  117 1
 242  114  121 am
 243  116  117 1
 244  116  291 1
 245  117  118 1
 246  117  292 1
 247  118  293 1
 248  118  294 1
 249  118  295 1
 250  119  120 2
 251  119  122 1
 252  119  125 am
 253  121  122 1
 254  121  296 1
 255  122  297 1
 256  122  298 1
 257  123  124 2
 258  123  126 1
 259  123  136 am
 260  125  126 1
 261  125  299 1
 262  126  127 1
 263  126  300 1
 264  127  128 1
 265  127  301 1
 266  127  302 1
 267  128  129 1
 268  128  303 1
 269  128  304 1
 270  129  130 1
 271  129  305 1
 272  129  306 1
 273  130  131 1
 274  130  307 1
 275  131  132 2
 276  131  133 1
 277  132  308 1
 278  133  309 1
 279  133  310 1
 280  134  135 2
 281  134  137 1
 282  134  142 am
 283  136  137 1
 284  136  311 1
 285  137  138 1
 286  137  312 1
 287  138  139 1
 288  138  313 1
 289  138  314 1
 290  139  315 1
 291  140  141 2
 292  140  143 1
 293  140  148 1
 294  142  143 1
 295  142  316 1
 296  143  144 1
 297  143  317 1
 298  144  145 1
 299  144  318 1
 300  144  319 1
 301  145  146 2
 302  145  147 1
 303  147  320 1
 304  148  321 1
 305  149  150 2
 306  149  165 1
 307  151  152 1
 308  151  322 1
 309  151  323 1
 310  151  324 1
 311  152  153 1
 312  152  325 1
 313  152  326 1
 314  153  154 1
 315  153  327 1
 316  153  328 1
 317  154  155 1
 318  154  329 1
 319  154  330 1
 320  155  156 1
 321  155  331 1
 322  155  332 1
 323  156  157 1
 324  156  333 1
 325  156  334 1
 326  157  158 1
 327  157  335 1
 328  157  336 1
 329  158  159 1
 330  158  337 1
 331  158  338 1
 332  159  160 1
 333  159  339 1
 334  159  340 1
 335  160  161 1
 336  160  341 1
 337  160  342 1
 338  161  162 1
 339  161  343 1
 340  161  344 1
 341  162  163 1
 342  162  345 1
 343  162  346 1
 344  163  164 1
 345  163  347 1
 346  163  348 1
 347  164  165 1
 348  164  349 1
 349  164  350 1
 350  165  351 1
 351  165  352 1

#	End of record

