#	Name: ASD01208557
#	Creating user name:	WinNT
#	Creation time:	15. 06. 2019 19:10

#	Modifying user name:	WinNT
#	Modification time:	15. 06. 2019 19:10

#	Program:	/corina/corina34_cracker 3.40 0067  02.08.2006

@<TRIPOS>MOLECULE
ASD01208557
  17   16    0    0    0
SMALL
NO_CHARGES


@<TRIPOS>ATOM
   1 C1            -0.0187     1.5258     0.0104 C.3     
   2 C2             0.0021    -0.0041     0.0020 C.3     
   3 C3             0.7421    -0.5109     1.2415 C.3     
   4 C4             0.8719    -2.0337     1.1708 C.3     
   5 O5             0.6709    -0.4649    -1.1737 O.3     
   6 N6             2.0803     0.0928     1.2939 N.3     
   7 H7             1.0039     1.9031     0.0027 H       
   8 H8            -0.5459     1.8868    -0.8726 H       
   9 H9            -0.5289     1.8773     0.9072 H       
  10 H10           -1.0205    -0.3814     0.0098 H       
  11 H11            0.1838    -0.2350     2.1361 H       
  12 H12           -0.1210    -2.4817     1.1320 H       
  13 H13            1.4302    -2.3096     0.2763 H       
  14 H14            1.3991    -2.3948     2.0539 H       
  15 H15            0.2557    -0.1806    -1.9994 H       
  16 H16            2.0235     1.1000     1.2761 H       
  17 H17            2.5895    -0.2265     2.1043 H       
@<TRIPOS>BOND
   1    1    2 1
   2    1    7 1
   3    1    8 1
   4    1    9 1
   5    2    3 1
   6    2    5 1
   7    2   10 1
   8    3    4 1
   9    3    6 1
  10    3   11 1
  11    4   12 1
  12    4   13 1
  13    4   14 1
  14    5   15 1
  15    6   16 1
  16    6   17 1

#	End of record

