#	Name: ASD03730214
#	Creating user name:	WinNT
#	Creation time:	15. 06. 2019 20:44

#	Modifying user name:	WinNT
#	Modification time:	15. 06. 2019 20:44

#	Program:	/corina/corina34_cracker 3.40 0067  02.08.2006

@<TRIPOS>MOLECULE
ASD03730214
  65   70    0    0    0
SMALL
NO_CHARGES


@<TRIPOS>ATOM
   1 N1            -0.4402     1.2587     1.1352 N.3     
   2 C2            -0.3863    -0.2209     1.1924 C.3     
   3 O3             0.7256    -0.5473     0.3392 O.3     
   4 C4             1.5689     0.5254     0.3684 C.ar    
   5 C5             0.8831     1.6426     0.8433 C.ar    
   6 C6             2.9045     0.6374     0.0206 C.ar    
   7 C7             3.5651     1.8568     0.1336 C.ar    
   8 C8             2.8632     2.9676     0.5914 C.ar    
   9 C9             1.5354     2.8600     0.9490 C.ar    
  10 O10            4.8665     2.1696    -0.1304 O.3     
  11 C11            3.8250     4.1249     0.5652 C.3     
  12 C12            4.9898     3.5965    -0.2835 C.3     
  13 N13            3.3144     6.3279     0.8952 N.am    
  14 C14            3.2141     5.3585    -0.0360 C.2     
  15 C15            4.2710     4.5312     1.9380 C.ar    
  16 C16            4.8965     3.8621     2.9813 C.ar    
  17 C17            5.1859     4.5402     4.1651 C.ar    
  18 C18            4.8480     5.8730     4.2911 C.ar    
  19 C19            4.2255     6.5374     3.2538 C.ar    
  20 C20            3.9300     5.8732     2.0645 C.ar    
  21 O21            2.7272     5.4621    -1.1419 O.2     
  22 C22           -0.8799     1.8195     2.4198 C.3     
  23 C23            0.2180     1.6190     3.4663 C.3     
  24 C24           -0.2399     2.2031     4.8042 C.3     
  25 C25            0.8581     2.0026     5.8508 C.3     
  26 C26            0.4001     2.5867     7.1887 C.3     
  27 C27            4.7013     1.4748     3.6853 C.ar    
  28 C28            5.2555     2.4297     2.8375 C.ar    
  29 C29            6.1554     2.0200     1.8474 C.ar    
  30 C30            6.4592     0.6763     1.7511 C.ar    
  31 C31            5.8649    -0.2198     2.6350 C.ar    
  32 N32            5.0166     0.2013     3.5613 N.ar    
  33 N33            6.1648    -1.5732     2.5444 N.pl3   
  34 C34            7.1823    -2.0362     1.5975 C.3     
  35 C35            5.4637    -2.5375     3.3957 C.3     
  36 H36           -0.2005    -0.5594     2.2117 H       
  37 H37           -1.3082    -0.6542     0.8046 H       
  38 H38            3.4380    -0.2291    -0.3411 H       
  39 H39            1.0032     3.7267     1.3123 H       
  40 H40            5.9445     3.9467     0.1089 H       
  41 H41            4.8700     3.8854    -1.3276 H       
  42 H42            2.9960     7.2354     0.7686 H       
  43 H43            5.6720     4.0247     4.9802 H       
  44 H44            5.0718     6.3990     5.2074 H       
  45 H45            3.9658     7.5799     3.3642 H       
  46 H46           -1.0794     2.8846     2.3020 H       
  47 H47           -1.7888     1.3134     2.7452 H       
  48 H48            0.4176     0.5539     3.5841 H       
  49 H49            1.1269     2.1251     3.1409 H       
  50 H50           -0.4394     3.2682     4.6864 H       
  51 H51           -1.1488     1.6970     5.1296 H       
  52 H52            1.0576     0.9375     5.9685 H       
  53 H53            1.7669     2.5087     5.5254 H       
  54 H54            0.2006     3.6518     7.0709 H       
  55 H55           -0.5087     2.0806     7.5141 H       
  56 H56            1.1823     2.4439     7.9342 H       
  57 H57            4.0091     1.7814     4.4555 H       
  58 H58            6.6015     2.7374     1.1745 H       
  59 H59            7.1494     0.3248     0.9985 H       
  60 H60            8.1574    -2.0392     2.0846 H       
  61 H61            6.9383    -3.0457     1.2668 H       
  62 H62            7.2082    -1.3681     0.7366 H       
  63 H63            4.7496    -2.0111     4.0291 H       
  64 H64            4.9339    -3.2563     2.7706 H       
  65 H65            6.1858    -3.0626     4.0210 H       
@<TRIPOS>BOND
   1    1    2 1
   2    1    5 1
   3    1   22 1
   4    2    3 1
   5    2   36 1
   6    2   37 1
   7    3    4 1
   8    4    5 ar
   9    4    6 ar
  10    5    9 ar
  11    6    7 ar
  12    6   38 1
  13    7    8 ar
  14    7   10 1
  15    8    9 ar
  16    8   11 1
  17    9   39 1
  18   10   12 1
  19   11   12 1
  20   11   14 1
  21   11   15 1
  22   12   40 1
  23   12   41 1
  24   13   14 am
  25   13   20 1
  26   13   42 1
  27   14   21 2
  28   15   16 ar
  29   15   20 ar
  30   16   17 ar
  31   16   28 1
  32   17   18 ar
  33   17   43 1
  34   18   19 ar
  35   18   44 1
  36   19   20 ar
  37   19   45 1
  38   22   23 1
  39   22   46 1
  40   22   47 1
  41   23   24 1
  42   23   48 1
  43   23   49 1
  44   24   25 1
  45   24   50 1
  46   24   51 1
  47   25   26 1
  48   25   52 1
  49   25   53 1
  50   26   54 1
  51   26   55 1
  52   26   56 1
  53   27   28 ar
  54   27   32 ar
  55   27   57 1
  56   28   29 ar
  57   29   30 ar
  58   29   58 1
  59   30   31 ar
  60   30   59 1
  61   31   32 ar
  62   31   33 1
  63   33   34 1
  64   33   35 1
  65   34   60 1
  66   34   61 1
  67   34   62 1
  68   35   63 1
  69   35   64 1
  70   35   65 1

#	End of record

