#	Name: ASD05430171
#	Creating user name:	WinNT
#	Creation time:	15. 06. 2019 20:59

#	Modifying user name:	WinNT
#	Modification time:	15. 06. 2019 20:59

#	Program:	/corina/corina34_cracker 3.40 0067  02.08.2006

@<TRIPOS>MOLECULE
ASD05430171
  63   70    0    0    0
SMALL
NO_CHARGES


@<TRIPOS>ATOM
   1 C1            -0.0168     1.3907     0.0097 C.ar    
   2 C2             0.0021    -0.0041     0.0020 C.ar    
   3 C3             1.2137    -0.6728    -0.0132 C.ar    
   4 C4             2.4074     0.0328    -0.0203 C.ar    
   5 C5             2.4074     1.3994    -0.0130 C.ar    
   6 C6             1.1963     2.0963     0.0019 C.ar    
   7 C7             4.2389     0.9308     2.2336 C.3     
   8 C8             4.6728     1.9140     1.1443 C.3     
   9 C9             3.7120     2.1538    -0.0204 C.3     
  10 C10            4.2298     1.6065     3.5995 C.3     
  11 C11            3.9922     3.1152     3.5587 C.3     
  12 N12            5.0574     3.7340     2.7685 N.pl3   
  13 C13            5.4926     3.0858     1.6267 C.2     
  14 C14            5.6599     5.0133     3.1395 C.3     
  15 C15            7.1584     4.9487     2.8227 C.3     
  16 O16            7.3514     4.5345     1.4739 O.3     
  17 N17            6.5566     3.4635     1.0222 N.2     
  18 C18            5.0207     6.1247     2.3476 C.ar    
  19 C19            4.7396     7.3335     2.9566 C.ar    
  20 C20            4.7210     5.9366     1.0112 C.ar    
  21 C21            4.1355     6.9553     0.2837 C.ar    
  22 C22            3.8488     8.1647     0.8939 C.ar    
  23 C23            4.1538     8.3536     2.2312 C.ar    
  24 N24           -1.2013    -0.7255     0.0101 N.pl3   
  25 F25            3.2764     9.1613     0.1837 F       
  26 C26            4.9937     1.3468    -0.2386 C.3     
  27 C27            3.3499     0.8831     4.6323 C.3     
  28 O28            4.4450     1.0989     5.5457 O.3     
  29 C29            5.4190     1.2049     4.4874 C.3     
  30 C30           -2.2464    -0.5427     0.8578 C.2     
  31 C31           -1.5464    -1.7440    -0.8399 C.2     
  32 C32           -2.7795    -2.1501    -0.4818 C.2     
  33 N33           -3.1821    -1.4010     0.5553 N.2     
  34 C34           -3.5718    -3.2523    -1.1363 C.3     
  35 C35            0.8473     3.5199     0.0138 C.2     
  36 N36           -0.4475     3.6023     0.0266 N.2     
  37 O37           -1.0081     2.3047     0.0187 O.3     
  38 H38            1.2295    -1.7526    -0.0191 H       
  39 H39            3.3454    -0.5024    -0.0315 H       
  40 H40            3.2375     0.5644     2.0079 H       
  41 H41            4.9317     0.0896     2.2541 H       
  42 H42            3.6716     3.1586    -0.4409 H       
  43 H43            3.0268     3.3213     3.0966 H       
  44 H44            4.0087     3.5158     4.5723 H       
  45 H45            5.5170     5.1915     4.2053 H       
  46 H46            7.6016     5.9342     2.9657 H       
  47 H47            7.6397     4.2361     3.4926 H       
  48 H48            4.9776     7.4807     3.9997 H       
  49 H49            4.9447     4.9932     0.5354 H       
  50 H50            3.9021     6.8084    -0.7605 H       
  51 H51            3.9302     9.2964     2.7083 H       
  52 H52            5.7969     1.8207    -0.8029 H       
  53 H53            4.8934     0.2703    -0.3768 H       
  54 H54            2.4421     1.4258     4.8959 H       
  55 H55            3.1693    -0.1665     4.4002 H       
  56 H56            5.8751     0.2544     4.2107 H       
  57 H57            6.1474     2.0021     4.6364 H       
  58 H58           -2.2951     0.1902     1.6497 H       
  59 H59           -0.9450    -2.1437    -1.6430 H       
  60 H60           -3.3499    -4.2000    -0.6456 H       
  61 H61           -4.6366    -3.0371    -1.0462 H       
  62 H62           -3.3021    -3.3170    -2.1904 H       
  63 H63            1.5405     4.3481     0.0125 H       
@<TRIPOS>BOND
   1    1    2 ar
   2    1    6 ar
   3    1   37 1
   4    2    3 ar
   5    2   24 1
   6    3    4 ar
   7    3   38 1
   8    4    5 ar
   9    4   39 1
  10    5    6 ar
  11    5    9 1
  12    6   35 1
  13    7    8 1
  14    7   10 1
  15    7   40 1
  16    7   41 1
  17    8    9 1
  18    8   26 1
  19    8   13 1
  20    9   26 1
  21    9   42 1
  22   10   11 1
  23   10   27 1
  24   10   29 1
  25   11   12 1
  26   11   43 1
  27   11   44 1
  28   12   13 1
  29   12   14 1
  30   13   17 2
  31   14   15 1
  32   14   18 1
  33   14   45 1
  34   15   16 1
  35   15   46 1
  36   15   47 1
  37   16   17 1
  38   18   19 ar
  39   18   20 ar
  40   19   23 ar
  41   19   48 1
  42   20   21 ar
  43   20   49 1
  44   21   22 ar
  45   21   50 1
  46   22   23 ar
  47   22   25 1
  48   23   51 1
  49   24   30 1
  50   24   31 1
  51   26   52 1
  52   26   53 1
  53   27   28 1
  54   27   54 1
  55   27   55 1
  56   28   29 1
  57   29   56 1
  58   29   57 1
  59   30   33 2
  60   30   58 1
  61   31   32 2
  62   31   59 1
  63   32   33 1
  64   32   34 1
  65   34   60 1
  66   34   61 1
  67   34   62 1
  68   35   36 2
  69   35   63 1
  70   36   37 1

#	End of record

