#	Name: ASD01200377
#	Creating user name:	WinNT
#	Creation time:	15. 06. 2019 19:09

#	Modifying user name:	WinNT
#	Modification time:	15. 06. 2019 19:09

#	Program:	/corina/corina34_cracker 3.40 0067  02.08.2006

@<TRIPOS>MOLECULE
ASD01200377
  80   83    0    0    0
SMALL
NO_CHARGES


@<TRIPOS>ATOM
   1 N1            -0.0178     1.4608     0.0101 N.pl3   
   2 C2             0.0235     0.0158     0.2482 C.3     
   3 C3            -0.9861    -0.3505     1.3379 C.3     
   4 P4            -0.3970    -0.8659    -1.2910 P.3     
   5 C5             1.1735     2.1776    -0.1526 C.ar    
   6 O6            -0.2244    -2.4507    -1.0659 O.3     
   7 O7            -1.7989    -0.5701    -1.6618 O.2     
   8 O8             0.5842    -0.3816    -2.4721 O.3     
   9 C9             0.4417    -0.8112    -3.8275 C.3     
  10 C10            1.5324    -0.1656    -4.6844 C.3     
  11 C11           -0.5779    -3.4203    -2.0544 C.3     
  12 C12           -0.2880    -4.8238    -1.5187 C.3     
  13 C13            2.3819     1.5065    -0.2168 C.ar    
  14 C14            3.5680     2.2255    -0.3797 C.ar    
  15 C15            3.5294     3.6182    -0.4771 C.ar    
  16 C16            2.3219     4.2814    -0.4124 C.ar    
  17 C17            1.1425     3.5684    -0.2560 C.ar    
  18 N18           -2.3356     0.0361     0.9051 N.3     
  19 O19           -0.0447     4.2268    -0.1928 O.3     
  20 C20            4.8606     1.5147    -0.4483 C.2     
  21 N21            6.0200     2.0930    -0.5985 N.2     
  22 C22            7.0729     1.3219    -0.6404 C.2     
  23 C23            6.7919    -0.0132    -0.5170 C.2     
  24 S24            5.0474    -0.1805    -0.3348 S.3     
  25 C25            7.7666    -1.1045    -0.5283 C.2     
  26 C26            8.4728     1.8533    -0.8104 C.3     
  27 O27            7.3513    -2.3813    -0.3966 O.3     
  28 O28            8.9514    -0.8605    -0.6565 O.2     
  29 C29            8.3572    -3.3961    -0.4164 C.3     
  30 C30            7.7004    -4.7685    -0.2553 C.3     
  31 C31           -3.3337    -0.3012     1.9288 C.3     
  32 C32           -4.7234     0.1155     1.4431 C.3     
  33 C33           -5.7629    -0.2359     2.5094 C.3     
  34 C34           -7.7357     1.0088     2.8243 C.ar    
  35 N35           -6.8699     1.4006     3.8466 N.pl3   
  36 C36           -5.6012     0.6754     3.7371 C.3     
  37 C37           -7.1577     0.0542     2.0024 C.ar    
  38 C38           -7.8573    -0.4622     0.9286 C.ar    
  39 C39           -9.1432    -0.0291     0.6646 C.ar    
  40 C40           -9.7292     0.9231     1.4786 C.ar    
  41 C41           -9.0358     1.4406     2.5515 C.ar    
  42 H42           -0.8707     1.9201    -0.0388 H       
  43 H43            1.0248    -0.2710     0.5693 H       
  44 H44           -0.9554    -1.4256     1.5150 H       
  45 H45           -0.7347     0.1767     2.2582 H       
  46 H46            0.5356    -1.8961    -3.8766 H       
  47 H47           -0.5379    -0.5141    -4.2018 H       
  48 H48            1.4238    -0.4933    -5.7183 H       
  49 H49            1.4385     0.9192    -4.6354 H       
  50 H50            2.5121    -0.4628    -4.3102 H       
  51 H51           -1.6392    -3.3321    -2.2866 H       
  52 H52            0.0073    -3.2481    -2.9577 H       
  53 H53            0.7733    -4.9120    -1.2864 H       
  54 H54           -0.8731    -4.9959    -0.6153 H       
  55 H55           -0.5576    -5.5633    -2.2726 H       
  56 H56            2.4078     0.4295    -0.1408 H       
  57 H57            4.4455     4.1761    -0.6027 H       
  58 H58            2.2943     5.3584    -0.4876 H       
  59 H59           -2.3736     1.0172     0.6725 H       
  60 H60           -0.4684     4.3573    -1.0522 H       
  61 H61            8.9060     2.0559     0.1691 H       
  62 H62            9.0815     1.1139    -1.3309 H       
  63 H63            8.4436     2.7745    -1.3923 H       
  64 H64            8.8924    -3.3587    -1.3652 H       
  65 H65            9.0571    -3.2299     0.4024 H       
  66 H66            7.1651    -4.8060     0.6935 H       
  67 H67            7.0004    -4.9347    -1.0741 H       
  68 H68            8.4676    -5.5426    -0.2704 H       
  69 H69           -3.3193    -1.3759     2.1101 H       
  70 H70           -3.0986     0.2263     2.8532 H       
  71 H71           -4.7378     1.1902     1.2619 H       
  72 H72           -4.9585    -0.4121     0.5187 H       
  73 H73           -5.6728    -1.2835     2.7966 H       
  74 H74           -7.0774     2.0575     4.5295 H       
  75 H75           -5.4291     0.0774     4.6320 H       
  76 H76           -4.7785     1.3738     3.5840 H       
  77 H77           -7.3982    -1.2057     0.2938 H       
  78 H78           -9.6887    -0.4330    -0.1755 H       
  79 H79          -10.7338     1.2620     1.2732 H       
  80 H80           -9.4993     2.1836     3.1835 H       
@<TRIPOS>BOND
   1    1    2 1
   2    1    5 1
   3    1   42 1
   4    2    3 1
   5    2    4 1
   6    2   43 1
   7    3   18 1
   8    3   44 1
   9    3   45 1
  10    4    6 1
  11    4    7 2
  12    4    8 1
  13    5   13 ar
  14    5   17 ar
  15    6   11 1
  16    8    9 1
  17    9   10 1
  18    9   46 1
  19    9   47 1
  20   10   48 1
  21   10   49 1
  22   10   50 1
  23   11   12 1
  24   11   51 1
  25   11   52 1
  26   12   53 1
  27   12   54 1
  28   12   55 1
  29   13   14 ar
  30   13   56 1
  31   14   15 ar
  32   14   20 1
  33   15   16 ar
  34   15   57 1
  35   16   17 ar
  36   16   58 1
  37   17   19 1
  38   18   31 1
  39   18   59 1
  40   19   60 1
  41   20   21 2
  42   20   24 1
  43   21   22 1
  44   22   23 2
  45   22   26 1
  46   23   24 1
  47   23   25 1
  48   25   27 1
  49   25   28 2
  50   26   61 1
  51   26   62 1
  52   26   63 1
  53   27   29 1
  54   29   30 1
  55   29   64 1
  56   29   65 1
  57   30   66 1
  58   30   67 1
  59   30   68 1
  60   31   32 1
  61   31   69 1
  62   31   70 1
  63   32   33 1
  64   32   71 1
  65   32   72 1
  66   33   37 1
  67   33   36 1
  68   33   73 1
  69   34   35 1
  70   34   37 ar
  71   34   41 ar
  72   35   36 1
  73   35   74 1
  74   36   75 1
  75   36   76 1
  76   37   38 ar
  77   38   39 ar
  78   38   77 1
  79   39   40 ar
  80   39   78 1
  81   40   41 ar
  82   40   79 1
  83   41   80 1

#	End of record

