#	Name: ASD01916452
#	Creating user name:	WinNT
#	Creation time:	15. 06. 2019 20:07

#	Modifying user name:	WinNT
#	Modification time:	15. 06. 2019 20:07

#	Program:	/corina/corina34_cracker 3.40 0067  02.08.2006

@<TRIPOS>MOLECULE
ASD01916452
  38   40    0    0    0
SMALL
NO_CHARGES


@<TRIPOS>ATOM
   1 C1            -0.0167     1.3789     0.0096 C.ar    
   2 C2             0.0021    -0.0041     0.0020 C.ar    
   3 C3             1.2201    -0.6688    -0.0132 C.ar    
   4 C4             2.3827     0.0819    -0.0203 C.ar    
   5 C5             2.2904     1.4738    -0.0120 C.ar    
   6 N6             1.1040     2.0708     0.0026 N.ar    
   7 C7             3.4840     2.2650    -0.0192 C.1     
   8 C8             4.4625     2.9137    -0.0251 C.1     
   9 C9             5.6893     3.7271    -0.0325 C.3     
  10 C10            5.3174     5.2112    -0.0209 C.3     
  11 N11            7.1345     6.4287    -1.0915 N.2     
  12 N12            6.5385     6.0206    -0.0283 N.pl3   
  13 N13            7.1553     6.4171     1.0280 N.2     
  14 C14            8.2110     7.1218     0.6599 C.2     
  15 C15            8.1917     7.1259    -0.7468 C.2     
  16 C16            9.2083     7.7736     1.5459 C.ar    
  17 C17            9.0835     7.6746     2.9298 C.ar    
  18 C18           10.0126     8.2819     3.7496 C.ar    
  19 C19           11.0684     8.9893     3.1981 C.ar    
  20 C20           11.1959     9.0907     1.8224 C.ar    
  21 C21           10.2746     8.4811     0.9954 C.ar    
  22 F22           11.9759     9.5825     4.0042 F       
  23 C23           -1.3377     2.1041     0.0198 C.3     
  24 F24           -1.7402     2.3213     1.3419 F       
  25 H25           -0.9229    -0.5616     0.0082 H       
  26 H26            1.2599    -1.7481    -0.0191 H       
  27 H27            3.3477    -0.4030    -0.0318 H       
  28 H28            6.2846     3.4948     0.8506 H       
  29 H29            6.2675     3.5044    -0.9292 H       
  30 H30            4.7222     5.4434    -0.9040 H       
  31 H31            4.7392     5.4339     0.8758 H       
  32 H32            8.9008     7.6035    -1.4067 H       
  33 H33            8.2606     7.1235     3.3604 H       
  34 H34            9.9164     8.2059     4.8226 H       
  35 H35           12.0200     9.6437     1.3964 H       
  36 H36           10.3776     8.5562    -0.0771 H       
  37 H37           -1.2303     3.0618    -0.4893 H       
  38 H38           -2.0869     1.5015    -0.4938 H       
@<TRIPOS>BOND
   1    1    2 ar
   2    1    6 ar
   3    1   23 1
   4    2    3 ar
   5    2   25 1
   6    3    4 ar
   7    3   26 1
   8    4    5 ar
   9    4   27 1
  10    5    6 ar
  11    5    7 1
  12    7    8 3
  13    8    9 1
  14    9   10 1
  15    9   28 1
  16    9   29 1
  17   10   12 1
  18   10   30 1
  19   10   31 1
  20   11   12 1
  21   11   15 2
  22   12   13 1
  23   13   14 2
  24   14   15 1
  25   14   16 1
  26   15   32 1
  27   16   17 ar
  28   16   21 ar
  29   17   18 ar
  30   17   33 1
  31   18   19 ar
  32   18   34 1
  33   19   20 ar
  34   19   22 1
  35   20   21 ar
  36   20   35 1
  37   21   36 1
  38   23   24 1
  39   23   37 1
  40   23   38 1

#	End of record

