#	Name: ASD01885471
#	Creating user name:	WinNT
#	Creation time:	15. 06. 2019 19:49

#	Modifying user name:	WinNT
#	Modification time:	15. 06. 2019 19:49

#	Program:	/corina/corina34_cracker 3.40 0067  02.08.2006

@<TRIPOS>MOLECULE
ASD01885471
  52   55    0    0    0
SMALL
NO_CHARGES


@<TRIPOS>ATOM
   1 C1            -0.0865     1.3698     0.2645 C.ar    
   2 C2             0.0634     0.0632     0.7296 C.ar    
   3 N3            -0.9763    -0.7601     1.0186 N.2     
   4 C4            -2.0512    -0.8975     0.3318 C.2     
   5 C5            -2.3031    -0.0916    -0.9155 C.3     
   6 C6            -2.3675     1.3644    -0.5292 C.2     
   7 N7            -1.3181     1.9667     0.0290 N.am    
   8 C8             1.0476     2.1394     0.0084 C.ar    
   9 C9             2.3153     1.6184     0.2061 C.ar    
  10 C10            2.4657     0.3132     0.6647 C.ar    
  11 C11            1.3566    -0.4549     0.9232 C.ar    
  12 C12           -3.0654    -1.8694     0.7743 C.ar    
  13 O13           -3.3844     1.9942    -0.7304 O.2     
  14 C14           -2.7861    -2.7428     1.8306 C.ar    
  15 C15           -3.7362    -3.6538     2.2464 C.ar    
  16 C16           -4.9676    -3.7100     1.6243 C.ar    
  17 C17           -5.2612    -2.8440     0.5672 C.ar    
  18 C18           -4.3101    -1.9177     0.1449 C.ar    
  19 C19           -6.5387    -2.9050    -0.0768 C.1     
  20 N20           -7.5522    -2.9535    -0.5877 N.1     
  21 N21            3.4423     2.4023    -0.0552 N.pl3   
  22 C22            4.5784     1.8232    -0.5495 C.2     
  23 N23            4.5755     0.5458    -0.8878 N.2     
  24 N24            5.7166     2.5656    -0.6937 N.pl3   
  25 C25            5.7540     3.9496    -0.2146 C.3     
  26 C26            5.7270    -0.0556    -1.2732 C.1     
  27 N27            6.6923    -0.5598    -1.5963 N.1     
  28 C28            7.1123     4.5405    -0.4916 C.ar    
  29 C29            7.3520     5.1917    -1.6872 C.ar    
  30 C30            8.5980     5.7337    -1.9413 C.ar    
  31 C31            9.6042     5.6249    -0.9996 C.ar    
  32 C32            9.3642     4.9745     0.1963 C.ar    
  33 C33            8.1169     4.4363     0.4522 C.ar    
  34 H34           -1.4906    -0.2483    -1.6251 H       
  35 H35           -3.2485    -0.3951    -1.3650 H       
  36 H36           -1.4228     2.8938     0.2944 H       
  37 H37            0.9362     3.1526    -0.3483 H       
  38 H38            3.4537    -0.0954     0.8175 H       
  39 H39            1.4789    -1.4673     1.2788 H       
  40 H40           -1.8249    -2.7047     2.3215 H       
  41 H41           -3.5152    -4.3261     3.0622 H       
  42 H42           -5.7060    -4.4254     1.9552 H       
  43 H43           -4.5318    -1.2462    -0.6715 H       
  44 H44            3.4187     3.3571     0.1141 H       
  45 H45            6.4998     2.1762    -1.1131 H       
  46 H46            4.9917     4.5334    -0.7306 H       
  47 H47            5.5616     3.9681     0.8581 H       
  48 H48            6.5659     5.2767    -2.4228 H       
  49 H49            8.7855     6.2419    -2.8756 H       
  50 H50           10.5779     6.0478    -1.1984 H       
  51 H51           10.1504     4.8892     0.9318 H       
  52 H52            7.9294     3.9281     1.3866 H       
@<TRIPOS>BOND
   1    1    2 ar
   2    1    8 ar
   3    1    7 1
   4    2    3 1
   5    2   11 ar
   6    3    4 2
   7    4    5 1
   8    4   12 1
   9    5    6 1
  10    5   34 1
  11    5   35 1
  12    6    7 am
  13    6   13 2
  14    7   36 1
  15    8    9 ar
  16    8   37 1
  17    9   10 ar
  18    9   21 1
  19   10   11 ar
  20   10   38 1
  21   11   39 1
  22   12   14 ar
  23   12   18 ar
  24   14   15 ar
  25   14   40 1
  26   15   16 ar
  27   15   41 1
  28   16   17 ar
  29   16   42 1
  30   17   18 ar
  31   17   19 1
  32   18   43 1
  33   19   20 3
  34   21   22 1
  35   21   44 1
  36   22   23 2
  37   22   24 1
  38   23   26 1
  39   24   25 1
  40   24   45 1
  41   25   28 1
  42   25   46 1
  43   25   47 1
  44   26   27 3
  45   28   29 ar
  46   28   33 ar
  47   29   30 ar
  48   29   48 1
  49   30   31 ar
  50   30   49 1
  51   31   32 ar
  52   31   50 1
  53   32   33 ar
  54   32   51 1
  55   33   52 1

#	End of record

