#	Name: ASD07930442
#	Creating user name:	WinNT
#	Creation time:	15. 06. 2019 21:12

#	Modifying user name:	WinNT
#	Modification time:	15. 06. 2019 21:12

#	Program:	/corina/corina34_cracker 3.40 0067  02.08.2006

@<TRIPOS>MOLECULE
ASD07930442
  65   68    0    0    0
SMALL
NO_CHARGES


@<TRIPOS>ATOM
   1 N1            -2.0620     2.3386    -1.9355 N.2     
   2 N2            -2.2954     0.1409    -1.1758 N.pl3   
   3 C3            -2.1694    -1.1694    -1.8224 C.3     
   4 C4            -0.7193    -1.6574    -1.6987 C.3     
   5 S5             0.3725    -0.3926    -2.4215 S.o2    
   6 N6            -0.1493     1.0075    -1.6839 N.am    
   7 C7            -1.5217     1.1984    -1.6083 C.2     
   8 C8             0.7942     1.9882    -1.1414 C.3     
   9 C9            -2.5431    -1.0476    -3.3011 C.3     
  10 C10           -3.0907    -2.1537    -1.1490 C.ar    
  11 C11           -3.8053    -1.7753    -0.0297 C.ar    
  12 C12           -4.6547    -2.6826     0.5903 C.ar    
  13 C13           -4.7833    -3.9687     0.0828 C.ar    
  14 C14           -4.0667    -4.3430    -1.0371 C.ar    
  15 C15           -3.2246    -3.4353    -1.6567 C.ar    
  16 N16           -5.3794    -2.3014     1.7251 N.am    
  17 C17           -6.6195    -2.7888     1.9279 C.2     
  18 O18           -7.1466    -3.4815     1.0793 O.2     
  19 C19           -7.3389    -2.4810     3.1826 C.ar    
  20 O20            1.7083    -0.5598    -1.9666 O.2     
  21 O21            0.0802    -0.2013    -3.7989 O.2     
  22 C22           -8.6216    -2.9849     3.3930 C.ar    
  23 F23           -2.5245    -3.8035    -2.7519 F       
  24 N24           -9.2627    -2.7095     4.5143 N.ar    
  25 C25           -8.6866    -1.9543     5.4393 C.ar    
  26 C26           -7.4021    -1.4490     5.2290 C.ar    
  27 N27           -6.7595    -1.7265     4.1153 N.ar    
  28 O28           -9.3450    -1.6723     6.5894 O.3     
  29 C29          -10.6558    -2.2217     6.7379 C.3     
  30 C30          -11.2362    -1.7982     8.0887 C.3     
  31 O31          -11.4161    -0.3807     8.1066 O.3     
  32 C32          -12.1030     1.6183     9.2384 C.ar    
  33 C33          -13.2779     2.1698     8.7626 C.ar    
  34 C34          -13.4145     3.5431     8.6834 C.ar    
  35 C35          -12.3764     4.3649     9.0804 C.ar    
  36 C36          -11.2018     3.8135     9.5571 C.ar    
  37 C37          -11.0647     2.4402     9.6350 C.ar    
  38 C38          -11.9565     0.1213     9.3306 C.3     
  39 H39           -1.5028     3.0712    -2.2378 H       
  40 H40           -2.9245     0.2650    -0.4480 H       
  41 H41           -0.4687    -1.8022    -0.6479 H       
  42 H42           -0.6006    -2.5971    -2.2382 H       
  43 H43            1.0460     2.7156    -1.9132 H       
  44 H44            0.3386     2.5006    -0.2941 H       
  45 H45            1.6999     1.4782    -0.8134 H       
  46 H46           -1.8747    -0.3370    -3.7874 H       
  47 H47           -2.4492    -2.0217    -3.7810 H       
  48 H48           -3.5715    -0.6972    -3.3882 H       
  49 H49           -3.7035    -0.7746     0.3637 H       
  50 H50           -5.4430    -4.6759     0.5636 H       
  51 H51           -4.1662    -5.3433    -1.4320 H       
  52 H52           -4.9893    -1.6864     2.3658 H       
  53 H53           -9.0909    -3.5998     2.6392 H       
  54 H54           -6.9342    -0.8333     5.9829 H       
  55 H55          -11.2966    -1.8548     5.9361 H       
  56 H56          -10.6015    -3.3093     6.6907 H       
  57 H57          -12.1978    -2.2884     8.2408 H       
  58 H58          -10.5509    -2.0875     8.8854 H       
  59 H59          -14.0890     1.5276     8.4524 H       
  60 H60          -14.3322     3.9739     8.3110 H       
  61 H61          -12.4828     5.4378     9.0179 H       
  62 H62          -10.3904     4.4556     9.8666 H       
  63 H63          -10.1467     2.0094    10.0067 H       
  64 H64          -12.9330    -0.3291     9.5084 H       
  65 H65          -11.2860    -0.1282    10.1530 H       
@<TRIPOS>BOND
   1    1    7 2
   2    1   39 1
   3    2    3 1
   4    2    7 1
   5    2   40 1
   6    3    4 1
   7    3    9 1
   8    3   10 1
   9    4    5 1
  10    4   41 1
  11    4   42 1
  12    5    6 am
  13    5   20 2
  14    5   21 2
  15    6    7 1
  16    6    8 1
  17    8   43 1
  18    8   44 1
  19    8   45 1
  20    9   46 1
  21    9   47 1
  22    9   48 1
  23   10   11 ar
  24   10   15 ar
  25   11   12 ar
  26   11   49 1
  27   12   13 ar
  28   12   16 1
  29   13   14 ar
  30   13   50 1
  31   14   15 ar
  32   14   51 1
  33   15   23 1
  34   16   17 am
  35   16   52 1
  36   17   18 2
  37   17   19 1
  38   19   22 ar
  39   19   27 ar
  40   22   24 ar
  41   22   53 1
  42   24   25 ar
  43   25   26 ar
  44   25   28 1
  45   26   27 ar
  46   26   54 1
  47   28   29 1
  48   29   30 1
  49   29   55 1
  50   29   56 1
  51   30   31 1
  52   30   57 1
  53   30   58 1
  54   31   38 1
  55   32   33 ar
  56   32   37 ar
  57   32   38 1
  58   33   34 ar
  59   33   59 1
  60   34   35 ar
  61   34   60 1
  62   35   36 ar
  63   35   61 1
  64   36   37 ar
  65   36   62 1
  66   37   63 1
  67   38   64 1
  68   38   65 1

#	End of record

