#	Name: ASD01911414
#	Creating user name:	WinNT
#	Creation time:	15. 06. 2019 19:57

#	Modifying user name:	WinNT
#	Modification time:	15. 06. 2019 19:57

#	Program:	/corina/corina34_cracker 3.40 0067  02.08.2006

@<TRIPOS>MOLECULE
ASD01911414
  28   30    0    0    0
SMALL
NO_CHARGES


@<TRIPOS>ATOM
   1 C1            -0.0168     1.3840     0.0097 C.ar    
   2 C2             0.0021    -0.0041     0.0020 C.ar    
   3 C3            -1.1853    -0.7187     0.0100 C.ar    
   4 C4            -2.3934    -0.0548     0.0251 C.ar    
   5 C5            -2.4204     1.3431     0.0328 C.ar    
   6 C6            -1.2204     2.0599     0.0305 C.ar    
   7 C7            -3.6726     2.0377     0.0485 C.1     
   8 C8            -4.6991     2.6072     0.0614 C.1     
   9 C9            -5.9513     3.3018     0.0770 C.ar    
  10 C10           -5.9740     4.7041     0.0848 C.ar    
  11 C11           -7.1860     5.3665     0.0999 C.ar    
  12 C12           -8.3920     4.6317     0.1074 C.ar    
  13 C13           -8.3608     3.2429     0.0997 C.ar    
  14 C14           -7.1494     2.5810     0.0788 C.ar    
  15 C15           -7.5816     6.7912     0.1108 C.2     
  16 N16           -8.9248     6.8615     0.1238 N.am    
  17 C17           -9.4746     5.6341     0.1227 C.2     
  18 O18          -10.6650     5.3910     0.1326 O.2     
  19 O19           -6.8216     7.7385     0.1089 O.2     
  20 F20            1.1445     2.0744     0.0023 F       
  21 F21            1.1826    -0.6609    -0.0137 F       
  22 H22           -1.1642    -1.7985     0.0040 H       
  23 H23           -3.3176    -0.6136     0.0305 H       
  24 H24           -1.2348     3.1398     0.0365 H       
  25 H25           -5.0496     5.2625     0.0793 H       
  26 H26           -9.2834     2.6815     0.1058 H       
  27 H27           -7.1270     1.5012     0.0728 H       
  28 H28           -9.4307     7.6891     0.1327 H       
@<TRIPOS>BOND
   1    1    2 ar
   2    1   20 1
   3    1    6 ar
   4    2    3 ar
   5    2   21 1
   6    3    4 ar
   7    3   22 1
   8    4    5 ar
   9    4   23 1
  10    5    6 ar
  11    5    7 1
  12    6   24 1
  13    7    8 3
  14    8    9 1
  15    9   10 ar
  16    9   14 ar
  17   10   11 ar
  18   10   25 1
  19   11   12 ar
  20   11   15 1
  21   12   13 ar
  22   12   17 1
  23   13   14 ar
  24   13   26 1
  25   14   27 1
  26   15   16 am
  27   15   19 2
  28   16   17 am
  29   16   28 1
  30   17   18 2

#	End of record

