#	Name: ASD01916361
#	Creating user name:	WinNT
#	Creation time:	15. 06. 2019 20:07

#	Modifying user name:	WinNT
#	Modification time:	15. 06. 2019 20:07

#	Program:	/corina/corina34_cracker 3.40 0067  02.08.2006

@<TRIPOS>MOLECULE
ASD01916361
  35   37    0    0    0
SMALL
NO_CHARGES


@<TRIPOS>ATOM
   1 C1            -0.0110     1.5117    -0.0138 C.3     
   2 C2             0.0189    -0.0223    -0.0273 C.3     
   3 C3             0.6643    -0.5305     1.2597 C.3     
   4 C4             2.0200     0.0836     1.4658 C.ar    
   5 C5             2.3781     1.2917     0.8571 C.ar    
   6 C6             1.4258     1.9942    -0.0143 C.2     
   7 N7             2.9062    -0.5203     2.2386 N.ar    
   8 C8             4.1077     0.0065     2.4355 C.ar    
   9 N9             4.4802     1.1513     1.8766 N.ar    
  10 C10            3.6556     1.8181     1.0898 C.ar    
  11 N11            5.0011    -0.6585     3.2502 N.pl3   
  12 O12            1.7767     2.9246    -0.7089 O.2     
  13 C13           -1.4102    -0.5593    -0.1277 C.3     
  14 C14            6.3071    -0.1897     3.3811 C.ar    
  15 C15            6.9673    -0.3086     4.5987 C.ar    
  16 C16            8.2604     0.1545     4.7318 C.ar    
  17 C17            8.9057     0.7442     3.6378 C.ar    
  18 C18            8.2359     0.8608     2.4157 C.ar    
  19 C19            6.9486     0.3911     2.2904 C.ar    
  20 C20           10.2473     1.2270     3.7703 C.1     
  21 N21           11.3117     1.6099     3.8754 N.1     
  22 F22            8.9023     0.0395     5.9150 F       
  23 H23           -0.5256     1.8799    -0.9014 H       
  24 H24           -0.5197     1.8643     0.8833 H       
  25 H25            0.5974    -0.3668    -0.8845 H       
  26 H26            0.0246    -0.2764     2.1048 H       
  27 H27            0.7676    -1.6142     1.2040 H       
  28 H28            3.9595     2.7494     0.6351 H       
  29 H29            4.7201    -1.4523     3.7318 H       
  30 H30           -1.8709    -0.1967    -1.0466 H       
  31 H31           -1.3890    -1.6490    -0.1373 H       
  32 H32           -1.9889    -0.2146     0.7294 H       
  33 H33            6.4677    -0.7635     5.4413 H       
  34 H34            8.7301     1.3154     1.5698 H       
  35 H35            6.4318     0.4810     1.3464 H       
@<TRIPOS>BOND
   1    1    2 1
   2    1    6 1
   3    1   23 1
   4    1   24 1
   5    2    3 1
   6    2   13 1
   7    2   25 1
   8    3    4 1
   9    3   26 1
  10    3   27 1
  11    4    5 ar
  12    4    7 ar
  13    5    6 1
  14    5   10 ar
  15    6   12 2
  16    7    8 ar
  17    8    9 ar
  18    8   11 1
  19    9   10 ar
  20   10   28 1
  21   11   14 1
  22   11   29 1
  23   13   30 1
  24   13   31 1
  25   13   32 1
  26   14   15 ar
  27   14   19 ar
  28   15   16 ar
  29   15   33 1
  30   16   17 ar
  31   16   22 1
  32   17   18 ar
  33   17   20 1
  34   18   19 ar
  35   18   34 1
  36   19   35 1
  37   20   21 3

#	End of record

