#	Name: ASD04910523
#	Creating user name:	WinNT
#	Creation time:	15. 06. 2019 20:56

#	Modifying user name:	WinNT
#	Modification time:	15. 06. 2019 20:56

#	Program:	/corina/corina34_cracker 3.40 0067  02.08.2006

@<TRIPOS>MOLECULE
ASD04910523
  27   29    0    0    0
SMALL
NO_CHARGES


@<TRIPOS>ATOM
   1 C1            -0.0168     1.3852     0.0097 C.ar    
   2 C2             0.0021    -0.0041     0.0020 C.ar    
   3 C3             1.2204    -0.6608    -0.0131 C.ar    
   4 C4             2.3819     0.0990    -0.0201 C.ar    
   5 C5             2.2882     1.4770    -0.0118 C.ar    
   6 N6             1.1125     2.0746     0.0026 N.ar    
   7 N7             3.7070    -0.5605    -0.0358 N.pl3   
   8 O8             3.7822    -1.7762    -0.0426 O.2     
   9 O9             4.7222     0.1125    -0.0419 O.2     
  10 N10           -1.2407     2.0611     0.0191 N.pl3   
  11 N11           -2.5105     1.4693     0.0223 N.2     
  12 C12           -3.4067     2.4223     0.0320 C.2     
  13 C13           -2.7412     3.6535     0.0353 C.2     
  14 C14           -1.4107     3.4088     0.0327 C.2     
  15 C15           -3.3923     5.0126     0.0456 C.3     
  16 C16           -4.3155     5.3625    -1.1233 C.3     
  17 C17           -4.9065     5.0690     0.2571 C.3     
  18 H18           -0.9214    -0.5640     0.0082 H       
  19 H19            1.2662    -1.7398    -0.0190 H       
  20 H20            3.1890     2.0727    -0.0172 H       
  21 H21           -4.4776     2.2827     0.0367 H       
  22 H22           -0.6258     4.1507     0.0378 H       
  23 H23           -2.7938     5.8173     0.4726 H       
  24 H24           -4.3247     6.3975    -1.4650 H       
  25 H25           -4.4520     4.6097    -1.8996 H       
  26 H26           -5.4318     4.1231     0.3889 H       
  27 H27           -5.3045     5.9109     0.8236 H       
@<TRIPOS>BOND
   1    1    2 ar
   2    1    6 ar
   3    1   10 1
   4    2    3 ar
   5    2   18 1
   6    3    4 ar
   7    3   19 1
   8    4    5 ar
   9    4    7 1
  10    5    6 ar
  11    5   20 1
  12    7    8 2
  13    7    9 2
  14   10   11 1
  15   10   14 1
  16   11   12 2
  17   12   13 1
  18   12   21 1
  19   13   14 2
  20   13   15 1
  21   14   22 1
  22   15   16 1
  23   15   17 1
  24   15   23 1
  25   16   17 1
  26   16   24 1
  27   16   25 1
  28   17   26 1
  29   17   27 1

#	End of record

