#	Name: ASD02198453
#	Creating user name:	WinNT
#	Creation time:	15. 06. 2019 20:19

#	Modifying user name:	WinNT
#	Modification time:	15. 06. 2019 20:19

#	Program:	/corina/corina34_cracker 3.40 0067  02.08.2006

@<TRIPOS>MOLECULE
ASD02198453
  66   69    0    0    0
SMALL
NO_CHARGES


@<TRIPOS>ATOM
   1 C1            -0.0179     1.4666     0.0101 C.3     
   2 S2            -0.8661    -0.8720     1.1134 S.o2    
   3 N3             0.0021    -0.0041     0.0020 N.am    
   4 C4            -2.6897    -2.2922    -0.3390 C.ar    
   5 C5            -2.4612    -1.1576     0.4215 C.ar    
   6 O6            -0.2374    -2.1427     1.2102 O.2     
   7 O7            -1.0605    -0.0141     2.2294 O.2     
   8 C8            -3.9360    -2.5274    -0.8862 C.ar    
   9 C9            -4.9682    -1.6259    -0.6771 C.ar    
  10 C10           -4.7412    -0.4763     0.0925 C.ar    
  11 C11           -3.4763    -0.2508     0.6400 C.ar    
  12 C12           -5.8317     0.4904     0.3215 C.2     
  13 N13           -7.0116     0.2495    -0.2093 N.2     
  14 N14           -5.5796     1.5923     1.0772 N.pl3   
  15 C15           -6.5759     2.5207     1.3146 C.2     
  16 C16           -7.8363     2.3003     0.7637 C.2     
  17 C17           -8.0430     1.0914    -0.0359 C.2     
  18 O18           -9.1302     0.8560    -0.5389 O.2     
  19 C19           -6.6388     3.7230     2.0275 C.2     
  20 N20           -7.8485     4.2097     1.9249 N.2     
  21 N21           -8.6270     3.3466     1.1410 N.pl3   
  22 C22            0.8140    -0.6834    -1.0191 C.3     
  23 C23            2.2274    -0.0922    -0.9896 C.3     
  24 N24            2.1471     1.3678    -1.1301 N.3     
  25 C25            1.4284     1.9731    -0.0010 C.3     
  26 C26            3.4847     1.9567    -1.2792 C.3     
  27 O27           -6.1926    -1.8552    -1.2148 O.3     
  28 C28           -6.3491    -3.0473    -1.9872 C.3     
  29 C29           -7.7855    -3.1332    -2.5072 C.3     
  30 C30          -10.0367     3.5345     0.7894 C.3     
  31 C31           -5.5008     4.3530     2.7885 C.3     
  32 C32           -4.3459     4.6460     1.8287 C.3     
  33 C33           -5.9761     5.6590     3.4282 C.3     
  34 C34           -5.0249     3.3935     3.8811 C.3     
  35 H35           -0.5401     1.8305    -0.8747 H       
  36 H36           -0.5231     1.8210     0.9086 H       
  37 H37           -1.8875    -2.9951    -0.5088 H       
  38 H38           -4.1064    -3.4145    -1.4781 H       
  39 H39           -3.2937     0.6325     1.2340 H       
  40 H40           -4.6953     1.7275     1.4522 H       
  41 H41            0.8587    -1.7504    -0.8010 H       
  42 H42            0.3717    -0.5261    -2.0028 H       
  43 H43            2.7060    -0.3407    -0.0423 H       
  44 H44            2.8116    -0.5052    -1.8120 H       
  45 H45            1.4330     3.0580    -0.1064 H       
  46 H46            1.9180     1.6958     0.9325 H       
  47 H47            3.9655     1.5461    -2.1671 H       
  48 H48            3.3961     3.0383    -1.3813 H       
  49 H49            4.0848     1.7227    -0.3999 H       
  50 H50           -5.6581    -3.0275    -2.8299 H       
  51 H51           -6.1361    -3.9152    -1.3630 H       
  52 H52           -8.4764    -3.1530    -1.6644 H       
  53 H53           -7.9984    -2.2654    -3.1313 H       
  54 H54           -7.9048    -4.0425    -3.0963 H       
  55 H55          -10.1071     4.0965    -0.1419 H       
  56 H56          -10.5126     2.5620     0.6637 H       
  57 H57          -10.5393     4.0849     1.5848 H       
  58 H58           -4.6849     5.3296     1.0503 H       
  59 H59           -3.5227     5.1017     2.3791 H       
  60 H60           -4.0072     3.7156     1.3729 H       
  61 H61           -6.7989     5.4502     4.1120 H       
  62 H62           -5.1530     6.1146     3.9786 H       
  63 H63           -6.3151     6.3425     2.6498 H       
  64 H64           -4.6862     2.4631     3.4254 H       
  65 H65           -4.2018     3.8491     4.4315 H       
  66 H66           -5.8477     3.1847     4.5649 H       
@<TRIPOS>BOND
   1    1    3 1
   2    1   25 1
   3    1   35 1
   4    1   36 1
   5    2    3 am
   6    2    6 2
   7    2    7 2
   8    2    5 1
   9    3   22 1
  10    4    5 ar
  11    4    8 ar
  12    4   37 1
  13    5   11 ar
  14    8    9 ar
  15    8   38 1
  16    9   10 ar
  17    9   27 1
  18   10   11 ar
  19   10   12 1
  20   11   39 1
  21   12   13 2
  22   12   14 1
  23   13   17 1
  24   14   15 1
  25   14   40 1
  26   15   16 2
  27   15   19 1
  28   16   17 1
  29   16   21 1
  30   17   18 2
  31   19   20 2
  32   19   31 1
  33   20   21 1
  34   21   30 1
  35   22   23 1
  36   22   41 1
  37   22   42 1
  38   23   24 1
  39   23   43 1
  40   23   44 1
  41   24   25 1
  42   24   26 1
  43   25   45 1
  44   25   46 1
  45   26   47 1
  46   26   48 1
  47   26   49 1
  48   27   28 1
  49   28   29 1
  50   28   50 1
  51   28   51 1
  52   29   52 1
  53   29   53 1
  54   29   54 1
  55   30   55 1
  56   30   56 1
  57   30   57 1
  58   31   32 1
  59   31   33 1
  60   31   34 1
  61   32   58 1
  62   32   59 1
  63   32   60 1
  64   33   61 1
  65   33   62 1
  66   33   63 1
  67   34   64 1
  68   34   65 1
  69   34   66 1

#	End of record

