#	Name: ASD05430707
#	Creating user name:	WinNT
#	Creation time:	15. 06. 2019 21:00

#	Modifying user name:	WinNT
#	Modification time:	15. 06. 2019 21:00

#	Program:	/corina/corina34_cracker 3.40 0067  02.08.2006

@<TRIPOS>MOLECULE
ASD05430707
  56   59    0    0    0
SMALL
NO_CHARGES


@<TRIPOS>ATOM
   1 C1            -0.2468     0.9638     0.9510 C.2     
   2 C2             0.0017    -0.0047    -0.0064 C.2     
   3 C3            -0.9823    -0.2903    -0.9728 C.2     
   4 N4            -2.1187     0.3497    -0.9699 N.2     
   5 N5            -2.3924     1.3322    -0.0127 N.am    
   6 C6            -1.4841     1.6361     0.9356 C.2     
   7 C7            -4.3932     4.0129    -1.3916 C.ar    
   8 C8            -3.8353     2.7486    -1.3547 C.ar    
   9 C9            -3.6788     2.0327    -0.0379 C.3     
  10 C10           -4.5376     4.6702    -2.5986 C.ar    
  11 C11           -4.1233     4.0619    -3.7714 C.ar    
  12 C12           -3.5647     2.7955    -3.7333 C.ar    
  13 C13           -3.4213     2.1402    -2.5251 C.ar    
  14 F14           -4.2644     4.7032    -4.9521 F       
  15 C15           -4.8140     1.0209     0.1306 C.3     
  16 N16            1.2130    -0.6896    -0.0142 N.am    
  17 O17            0.6871     1.2575     1.8951 O.3     
  18 O18           -1.7286     2.4947     1.7693 O.2     
  19 C19            1.2276    -2.0340     0.0802 C.2     
  20 O20            0.1917    -2.6413     0.2707 O.2     
  21 C21            2.5013    -2.7691    -0.0477 C.ar    
  22 C22            3.6926    -2.0725    -0.2666 C.ar    
  23 C23            2.5188    -4.1621     0.0557 C.ar    
  24 C24            3.7137    -4.8460    -0.0642 C.ar    
  25 C25            4.8984    -4.1451    -0.2879 C.ar    
  26 C26            4.8809    -2.7594    -0.3853 C.ar    
  27 O27            3.7343    -6.2017     0.0363 O.3     
  28 C28            2.4839    -6.8543     0.2663 C.3     
  29 N29            6.1083    -4.8387    -0.4088 N.pl3   
  30 C30            7.0352    -4.6930    -1.4089 C.2     
  31 C31            6.5891    -5.7794     0.4457 C.2     
  32 N32            7.7423    -6.1961    -0.0012 N.2     
  33 C33            8.0400    -5.5470    -1.1367 C.2     
  34 C34            9.2841    -5.7402    -1.9648 C.3     
  35 H35           -0.7941    -1.0449    -1.7222 H       
  36 H36           -4.7204     4.4854    -0.4772 H       
  37 H37           -3.7140     2.7571     0.7759 H       
  38 H38           -4.9738     5.6577    -2.6272 H       
  39 H39           -3.2408     2.3202    -4.6474 H       
  40 H40           -2.9852     1.1526    -2.4950 H       
  41 H41           -5.7711     1.5421     0.1119 H       
  42 H42           -4.7788     0.2965    -0.6831 H       
  43 H43           -4.7008     0.5031     1.0831 H       
  44 H44            2.0468    -0.1995    -0.0875 H       
  45 H45            0.4155     1.9474     2.5158 H       
  46 H46            3.6817    -0.9953    -0.3431 H       
  47 H47            1.6005    -4.7034     0.2293 H       
  48 H48            5.8002    -2.2198    -0.5590 H       
  49 H49            2.6416    -7.9312     0.3258 H       
  50 H50            2.0547    -6.4977     1.2026 H       
  51 H51            1.8017    -6.6318    -0.5542 H       
  52 H52            6.9712    -4.0224    -2.2530 H       
  53 H53            6.0992    -6.1242     1.3443 H       
  54 H54            9.1093    -6.5190    -2.7071 H       
  55 H55            9.5333    -4.8067    -2.4694 H       
  56 H56           10.1097    -6.0346    -1.3169 H       
@<TRIPOS>BOND
   1    1    2 2
   2    1   17 1
   3    1    6 1
   4    2    3 1
   5    2   16 1
   6    3    4 2
   7    3   35 1
   8    4    5 1
   9    5    6 am
  10    5    9 1
  11    6   18 2
  12    7    8 ar
  13    7   10 ar
  14    7   36 1
  15    8    9 1
  16    8   13 ar
  17    9   15 1
  18    9   37 1
  19   10   11 ar
  20   10   38 1
  21   11   12 ar
  22   11   14 1
  23   12   13 ar
  24   12   39 1
  25   13   40 1
  26   15   41 1
  27   15   42 1
  28   15   43 1
  29   16   19 am
  30   16   44 1
  31   17   45 1
  32   19   20 2
  33   19   21 1
  34   21   22 ar
  35   21   23 ar
  36   22   26 ar
  37   22   46 1
  38   23   24 ar
  39   23   47 1
  40   24   25 ar
  41   24   27 1
  42   25   26 ar
  43   25   29 1
  44   26   48 1
  45   27   28 1
  46   28   49 1
  47   28   50 1
  48   28   51 1
  49   29   30 1
  50   29   31 1
  51   30   33 2
  52   30   52 1
  53   31   32 2
  54   31   53 1
  55   32   33 1
  56   33   34 1
  57   34   54 1
  58   34   55 1
  59   34   56 1

#	End of record

