#	Name: ASD05490219
#	Creating user name:	WinNT
#	Creation time:	15. 06. 2019 21:01

#	Modifying user name:	WinNT
#	Modification time:	15. 06. 2019 21:01

#	Program:	/corina/corina34_cracker 3.40 0067  02.08.2006

@<TRIPOS>MOLECULE
ASD05490219
  70   72    0    0    0
SMALL
NO_CHARGES


@<TRIPOS>ATOM
   1 N1             0.5939     1.5854     0.2478 N.ar    
   2 C2             0.4605     0.2943     0.5112 C.ar    
   3 C3             1.5346    -0.5703     0.3828 C.ar    
   4 C4             2.7673    -0.0664    -0.0294 C.ar    
   5 C5             2.8700     1.2969    -0.2976 C.ar    
   6 C6             1.7502     2.1009    -0.1465 C.ar    
   7 N7             3.8694    -0.9053    -0.1693 N.3     
   8 C8             4.2582    -1.4839     1.1238 C.3     
   9 C9             3.6073    -1.9582    -1.1597 C.3     
  10 C10            3.6681    -1.3703    -2.5459 C.ar    
  11 C11            4.8800    -1.2751    -3.2037 C.ar    
  12 C12            4.9358    -0.7357    -4.4754 C.ar    
  13 C13            3.7796    -0.2920    -5.0893 C.ar    
  14 C14            2.5672    -0.3881    -4.4317 C.ar    
  15 C15            2.5108    -0.9313    -3.1620 C.ar    
  16 C16            1.3067     0.0961    -5.1008 C.3     
  17 N17            0.7021    -1.0055    -5.8617 N.3     
  18 C18           -0.6474    -0.6439    -6.3329 C.3     
  19 C19           -0.6541    -0.8050    -7.8677 C.3     
  20 C20            0.5164    -1.7913    -8.1207 C.3     
  21 C21            1.5314    -1.3576    -7.0338 C.3     
  22 N22            1.8410     3.4627    -0.4112 N.pl3   
  23 O23           -0.7430    -0.1870     0.9123 O.3     
  24 C24           -1.8125     0.7538     1.0266 C.3     
  25 C25           -3.0802     0.0313     1.4871 C.3     
  26 C26           -4.2253     1.0385     1.6095 C.3     
  27 C27           -5.4929     0.3161     2.0700 C.3     
  28 C28            5.6374    -2.0809     1.0127 C.2     
  29 O29            6.2699    -1.9545    -0.0090 O.2     
  30 O30            6.1632    -2.7531     2.0488 O.3     
  31 C31            7.9236    -4.0268     3.1481 C.3     
  32 C32            7.4960    -3.3010     1.8710 C.3     
  33 N33            4.1577     1.8796    -0.7377 N.pl3   
  34 O34            4.4243     1.9413    -1.9245 O.2     
  35 O35            4.9506     2.2973     0.0871 O.2     
  36 H36            1.4189    -1.6219     0.5996 H       
  37 H37            4.2602    -0.7037     1.8850 H       
  38 H38            3.5470    -2.2615     1.4024 H       
  39 H39            4.3587    -2.7420    -1.0642 H       
  40 H40            2.6175    -2.3807    -0.9873 H       
  41 H41            5.7834    -1.6217    -2.7240 H       
  42 H42            5.8828    -0.6606    -4.9891 H       
  43 H43            3.8233     0.1300    -6.0824 H       
  44 H44            1.5638    -1.0063    -2.6484 H       
  45 H45            0.6038     0.4434    -4.3436 H       
  46 H46            1.5465     0.9163    -5.7774 H       
  47 H47           -1.3866    -1.3094    -5.8870 H       
  48 H48           -0.8682     0.3900    -6.0676 H       
  49 H49           -1.5980    -1.2322    -8.2062 H       
  50 H50           -0.4652     0.1508    -8.3563 H       
  51 H51            0.1979    -2.8225    -7.9684 H       
  52 H52            0.9320    -1.6561    -9.1193 H       
  53 H53            2.1005    -0.4909    -7.3702 H       
  54 H54            2.2020    -2.1818    -6.7904 H       
  55 H55            2.6842     3.8455    -0.7000 H       
  56 H56            1.0612     4.0301    -0.3073 H       
  57 H57           -1.5462     1.5200     1.7546 H       
  58 H58           -1.9916     1.2198     0.0576 H       
  59 H59           -3.3465    -0.7349     0.7591 H       
  60 H60           -2.9011    -0.4347     2.4561 H       
  61 H61           -3.9590     1.8048     2.3375 H       
  62 H62           -4.4044     1.5046     0.6406 H       
  63 H63           -5.7593    -0.4502     1.3420 H       
  64 H64           -5.3139    -0.1499     3.0390 H       
  65 H65           -6.3088     1.0337     2.1572 H       
  66 H66            7.9279    -3.3241     3.9814 H       
  67 H67            7.2235    -4.8354     3.3583 H       
  68 H68            8.9242    -4.4381     3.0147 H       
  69 H69            7.4918    -4.0037     1.0377 H       
  70 H70            8.1962    -2.4924     1.6608 H       
@<TRIPOS>BOND
   1    1    2 ar
   2    1    6 ar
   3    2    3 ar
   4    2   23 1
   5    3    4 ar
   6    3   36 1
   7    4    5 ar
   8    4    7 1
   9    5    6 ar
  10    5   33 1
  11    6   22 1
  12    7    8 1
  13    7    9 1
  14    8   28 1
  15    8   37 1
  16    8   38 1
  17    9   10 1
  18    9   39 1
  19    9   40 1
  20   10   11 ar
  21   10   15 ar
  22   11   12 ar
  23   11   41 1
  24   12   13 ar
  25   12   42 1
  26   13   14 ar
  27   13   43 1
  28   14   15 ar
  29   14   16 1
  30   15   44 1
  31   16   17 1
  32   16   45 1
  33   16   46 1
  34   17   18 1
  35   17   21 1
  36   18   19 1
  37   18   47 1
  38   18   48 1
  39   19   20 1
  40   19   49 1
  41   19   50 1
  42   20   21 1
  43   20   51 1
  44   20   52 1
  45   21   53 1
  46   21   54 1
  47   22   55 1
  48   22   56 1
  49   23   24 1
  50   24   25 1
  51   24   57 1
  52   24   58 1
  53   25   26 1
  54   25   59 1
  55   25   60 1
  56   26   27 1
  57   26   61 1
  58   26   62 1
  59   27   63 1
  60   27   64 1
  61   27   65 1
  62   28   29 2
  63   28   30 1
  64   30   32 1
  65   31   32 1
  66   31   66 1
  67   31   67 1
  68   31   68 1
  69   32   69 1
  70   32   70 1
  71   33   34 2
  72   33   35 2

#	End of record

