#	Name: ASD01912025
#	Creating user name:	WinNT
#	Creation time:	15. 06. 2019 19:58

#	Modifying user name:	WinNT
#	Modification time:	15. 06. 2019 19:58

#	Program:	/corina/corina34_cracker 3.40 0067  02.08.2006

@<TRIPOS>MOLECULE
ASD01912025
  43   46    0    0    0
SMALL
NO_CHARGES


@<TRIPOS>ATOM
   1 C1            -0.0167     1.3831     0.0096 C.ar    
   2 C2             0.0021    -0.0041     0.0020 C.ar    
   3 C3            -1.1877    -0.7174     0.0091 C.ar    
   4 C4            -2.3996    -0.0464     0.0238 C.ar    
   5 C5            -2.4225     1.3476     0.0320 C.ar    
   6 C6            -1.2246     2.0610     0.0306 C.ar    
   7 C7            -3.7161     2.0688     0.0477 C.ar    
   8 N8            -4.7695     1.5836    -0.6018 N.ar    
   9 C9            -5.9274     2.2251    -0.5897 C.ar    
  10 N10           -6.0925     3.3689     0.0620 N.ar    
  11 C11           -5.0994     3.9218     0.7333 C.ar    
  12 C12           -3.8547     3.2811     0.7576 C.ar    
  13 C13           -2.7503     3.8452     1.4737 C.1     
  14 N14           -1.8742     4.2926     2.0417 N.1     
  15 N15           -6.9996     1.6857    -1.2789 N.pl3   
  16 C16           -8.2163     2.3363    -1.2806 C.2     
  17 O17           -9.3204     1.9037    -1.9145 O.3     
  18 C18          -10.3121     2.7964    -1.6920 C.ar    
  19 C19           -9.7630     3.8051    -0.8862 C.ar    
  20 N20           -8.4655     3.4611    -0.6613 N.2     
  21 C21          -11.6387     2.8734    -2.0842 C.ar    
  22 C22          -12.4144     3.9415    -1.6811 C.ar    
  23 C23          -11.8757     4.9406    -0.8848 C.ar    
  24 C24          -10.5585     4.8798    -0.4861 C.ar    
  25 O25            1.1514     2.0777     0.0022 O.3     
  26 C26            2.3597     1.3149    -0.0134 C.3     
  27 O27           -1.1644    -2.0762     0.0011 O.3     
  28 C28            0.1197    -2.7030    -0.0145 C.3     
  29 H29            0.9453    -0.5299    -0.0098 H       
  30 H30           -3.3254    -0.6024     0.0286 H       
  31 H31           -1.2385     3.1409     0.0369 H       
  32 H32           -5.2461     4.8534     1.2596 H       
  33 H33           -6.8957     0.8503    -1.7608 H       
  34 H34          -12.0651     2.0991    -2.7047 H       
  35 H35          -13.4481     3.9996    -1.9883 H       
  36 H36          -12.4924     5.7715    -0.5755 H       
  37 H37          -10.1432     5.6605     0.1340 H       
  38 H38            3.2154     1.9900    -0.0180 H       
  39 H39            2.4011     0.6817     0.8728 H       
  40 H40            2.3841     0.6913    -0.9070 H       
  41 H41           -0.0045    -3.7859    -0.0195 H       
  42 H42            0.6633    -2.3955    -0.9078 H       
  43 H43            0.6799    -2.4056     0.8720 H       
@<TRIPOS>BOND
   1    1    2 ar
   2    1   25 1
   3    1    6 ar
   4    2    3 ar
   5    2   29 1
   6    3    4 ar
   7    3   27 1
   8    4    5 ar
   9    4   30 1
  10    5    6 ar
  11    5    7 1
  12    6   31 1
  13    7    8 ar
  14    7   12 ar
  15    8    9 ar
  16    9   10 ar
  17    9   15 1
  18   10   11 ar
  19   11   12 ar
  20   11   32 1
  21   12   13 1
  22   13   14 3
  23   15   16 1
  24   15   33 1
  25   16   17 1
  26   16   20 2
  27   17   18 1
  28   18   19 ar
  29   18   21 ar
  30   19   20 1
  31   19   24 ar
  32   21   22 ar
  33   21   34 1
  34   22   23 ar
  35   22   35 1
  36   23   24 ar
  37   23   36 1
  38   24   37 1
  39   25   26 1
  40   26   38 1
  41   26   39 1
  42   26   40 1
  43   27   28 1
  44   28   41 1
  45   28   42 1
  46   28   43 1

#	End of record

