#	Name: ASD01150104
#	Creating user name:	WinNT
#	Creation time:	15. 06. 2019 19:03

#	Modifying user name:	WinNT
#	Modification time:	15. 06. 2019 19:03

#	Program:	/corina/corina34_cracker 3.40 0067  02.08.2006

@<TRIPOS>MOLECULE
ASD01150104
  60   62    0    0    0
SMALL
NO_CHARGES


@<TRIPOS>ATOM
   1 N1            -0.0166     1.3763     0.0096 N.pl3   
   2 C2             0.0021    -0.0041     0.0020 C.2     
   3 C3            -1.3262    -0.4109     0.0125 C.2     
   4 N4            -2.0781     0.6927     0.0256 N.2     
   5 C5            -1.3102     1.7524     0.0299 C.2     
   6 C6             1.0206    -0.9813    -0.0125 C.2     
   7 N7             0.6807    -2.2871    -0.0159 N.am    
   8 C8            -0.6087    -2.6667    -0.0061 C.2     
   9 N9            -1.6103    -1.7670     0.0083 N.am    
  10 O10            2.1925    -0.6496    -0.0223 O.2     
  11 C11           -3.0026    -2.2226     0.0187 C.3     
  12 C12           -3.4739    -2.3894     1.4647 C.3     
  13 O13           -0.8774    -3.8526    -0.0100 O.2     
  14 C14            1.7328    -3.3064    -0.0310 C.3     
  15 C15            2.1070    -3.6631     1.3845 C.ar    
  16 C16            1.4454    -4.6866     2.0371 C.ar    
  17 C17            1.7881    -5.0142     3.3353 C.ar    
  18 C18            2.7936    -4.3176     3.9819 C.ar    
  19 C19            3.4553    -3.2933     3.3283 C.ar    
  20 C20            3.1155    -2.9704     2.0281 C.ar    
  21 Cl21           3.2242    -4.7281     5.6127 Cl      
  22 C22           -1.7991     3.1779     0.0446 C.3     
  23 C23           -1.9566     3.6481     1.4920 C.3     
  24 C24            1.1490     2.2638     0.0032 C.3     
  25 N25           -4.8662    -2.8451     1.4750 N.am    
  26 C26           -5.4958    -3.0613     2.6469 C.2     
  27 O27           -6.7753    -3.4800     2.6564 O.3     
  28 O28           -4.9086    -2.8783     3.6949 O.2     
  29 C29           -7.3898    -3.6924     3.9548 C.3     
  30 C30           -7.3803    -2.3817     4.7440 C.3     
  31 C31           -8.8332    -4.1630     3.7650 C.3     
  32 C32           -6.6034    -4.7563     4.7233 C.3     
  33 H33           -3.6294    -1.4868    -0.4852 H       
  34 H34           -3.0759    -3.1785    -0.4999 H       
  35 H35           -2.8470    -3.1252     1.9685 H       
  36 H36           -3.4005    -1.4335     1.9833 H       
  37 H37            1.3696    -4.1958    -0.5459 H       
  38 H38            2.6081    -2.9174    -0.5512 H       
  39 H39            0.6603    -5.2301     1.5324 H       
  40 H40            1.2710    -5.8136     3.8452 H       
  41 H41            4.2402    -2.7492     3.8325 H       
  42 H42            3.6320    -2.1709     1.5178 H       
  43 H43           -1.0779     3.8146    -0.4679 H       
  44 H44           -2.7616     3.2371    -0.4635 H       
  45 H45           -2.3101     4.6791     1.5026 H       
  46 H46           -2.6777     3.0114     2.0044 H       
  47 H47           -0.9941     3.5888     2.0001 H       
  48 H48            1.4282     2.4894    -1.0259 H       
  49 H49            0.9039     3.1892     0.5244 H       
  50 H50            1.9820     1.7730     0.5065 H       
  51 H51           -5.3349    -2.9911     0.6385 H       
  52 H52           -7.9405    -1.6238     4.1965 H       
  53 H53           -7.8415    -2.5412     5.7187 H       
  54 H54           -6.3519    -2.0465     4.8792 H       
  55 H55           -8.8400    -5.0968     3.2027 H       
  56 H56           -9.2945    -4.3224     4.7397 H       
  57 H57           -9.3935    -3.4051     3.2175 H       
  58 H58           -5.5750    -4.4210     4.8585 H       
  59 H59           -7.0646    -4.9157     5.6979 H       
  60 H60           -6.6101    -5.6900     4.1610 H       
@<TRIPOS>BOND
   1    1    2 1
   2    1   24 1
   3    1    5 1
   4    2    3 2
   5    2    6 1
   6    3    4 1
   7    3    9 1
   8    4    5 2
   9    5   22 1
  10    6    7 am
  11    6   10 2
  12    7    8 am
  13    7   14 1
  14    8    9 am
  15    8   13 2
  16    9   11 1
  17   11   12 1
  18   11   33 1
  19   11   34 1
  20   12   25 1
  21   12   35 1
  22   12   36 1
  23   14   15 1
  24   14   37 1
  25   14   38 1
  26   15   16 ar
  27   15   20 ar
  28   16   17 ar
  29   16   39 1
  30   17   18 ar
  31   17   40 1
  32   18   19 ar
  33   18   21 1
  34   19   20 ar
  35   19   41 1
  36   20   42 1
  37   22   23 1
  38   22   43 1
  39   22   44 1
  40   23   45 1
  41   23   46 1
  42   23   47 1
  43   24   48 1
  44   24   49 1
  45   24   50 1
  46   25   26 am
  47   25   51 1
  48   26   27 1
  49   26   28 2
  50   27   29 1
  51   29   30 1
  52   29   31 1
  53   29   32 1
  54   30   52 1
  55   30   53 1
  56   30   54 1
  57   31   55 1
  58   31   56 1
  59   31   57 1
  60   32   58 1
  61   32   59 1
  62   32   60 1

#	End of record

