#	Name: ASD02038963
#	Creating user name:	WinNT
#	Creation time:	15. 06. 2019 20:17

#	Modifying user name:	WinNT
#	Modification time:	15. 06. 2019 20:17

#	Program:	/corina/corina34_cracker 3.40 0067  02.08.2006

@<TRIPOS>MOLECULE
ASD02038963
  53   55    0    0    0
SMALL
NO_CHARGES


@<TRIPOS>ATOM
   1 O1            -0.5611     1.2773    -0.7871 O.3     
   2 N2             0.6998     3.2348    -0.6334 N.am    
   3 C3             0.6350     1.8904    -0.7023 C.2     
   4 C4             0.8747     5.8983    -1.5693 C.3     
   5 C5             0.9799     6.9655    -2.6606 C.3     
   6 O6             2.1149     7.7959    -2.4070 O.3     
   7 C7             2.3533     8.8020    -3.2900 C.ar    
   8 C8             3.4385     9.6456    -3.1034 C.ar    
   9 C9             1.5145     8.9808    -4.3803 C.ar    
  10 C10            1.7566    10.0019    -5.2780 C.ar    
  11 C11            2.8395    10.8498    -5.0888 C.ar    
  12 C12            3.6812    10.6676    -3.9998 C.ar    
  13 N13            3.0861    11.8860    -5.9998 N.am    
  14 O14            1.6558     1.2314    -0.6880 O.2     
  15 C15            1.9972     3.9180    -0.5406 C.3     
  16 C16           -0.4049     5.0904    -1.7696 C.3     
  17 C17           -0.5527    -0.0714    -0.9575 C.ar    
  18 C18           -0.0599    -0.8949     0.0442 C.ar    
  19 C19           -0.0521    -2.2652    -0.1308 C.ar    
  20 C20            2.0843     4.9647    -1.6558 C.3     
  21 C21           -0.5254     4.0455    -0.6559 C.3     
  22 C22            2.0711    12.4102    -6.7150 C.2     
  23 N23            2.3240    13.3192    -7.6774 N.am    
  24 O24            0.9274    12.0630    -6.4921 O.2     
  25 C25            1.2207    13.8890    -8.4548 C.3     
  26 C26           -1.0421    -0.6262    -2.1309 C.ar    
  27 C27           -1.0326    -1.9969    -2.3023 C.ar    
  28 C28           -0.5350    -2.8164    -1.3045 C.ar    
  29 Cl29          -0.5247    -4.5387    -1.5219 Cl      
  30 H30            0.8509     6.3797    -0.5916 H       
  31 H31            1.0926     6.4826    -3.6313 H       
  32 H32            0.0764     7.5752    -2.6608 H       
  33 H33            4.0936     9.5033    -2.2566 H       
  34 H34            0.6721     8.3212    -4.5273 H       
  35 H35            1.1039    10.1406    -6.1271 H       
  36 H36            4.5238    11.3269    -3.8521 H       
  37 H37            3.9872    12.2259    -6.1155 H       
  38 H38            2.0832     4.4089     0.4288 H       
  39 H39            2.8017     3.1919    -0.6574 H       
  40 H40           -1.2658     5.7582    -1.7360 H       
  41 H41           -0.3707     4.5886    -2.7366 H       
  42 H42            0.3178    -0.4650     0.9601 H       
  43 H43            0.3315    -2.9066     0.6488 H       
  44 H44            2.0893     4.4647    -2.6244 H       
  45 H45            3.0002     5.5442    -1.5402 H       
  46 H46           -1.3839     3.4023    -0.8496 H       
  47 H47           -0.6511     4.5470     0.3037 H       
  48 H48            3.2364    13.5962    -7.8552 H       
  49 H49            1.6165    14.6000    -9.1801 H       
  50 H50            0.6949    13.0906    -8.9784 H       
  51 H51            0.5299    14.4004    -7.7844 H       
  52 H52           -1.4306     0.0130    -2.9099 H       
  53 H53           -1.4136    -2.4292    -3.2157 H       
@<TRIPOS>BOND
   1    1   17 1
   2    1    3 1
   3    2    3 am
   4    2   15 1
   5    2   21 1
   6    3   14 2
   7    4    5 1
   8    4   16 1
   9    4   20 1
  10    4   30 1
  11    5    6 1
  12    5   31 1
  13    5   32 1
  14    6    7 1
  15    7    8 ar
  16    7    9 ar
  17    8   12 ar
  18    8   33 1
  19    9   10 ar
  20    9   34 1
  21   10   11 ar
  22   10   35 1
  23   11   12 ar
  24   11   13 1
  25   12   36 1
  26   13   22 am
  27   13   37 1
  28   15   20 1
  29   15   38 1
  30   15   39 1
  31   16   21 1
  32   16   40 1
  33   16   41 1
  34   17   18 ar
  35   17   26 ar
  36   18   19 ar
  37   18   42 1
  38   19   28 ar
  39   19   43 1
  40   20   44 1
  41   20   45 1
  42   21   46 1
  43   21   47 1
  44   22   23 am
  45   22   24 2
  46   23   25 1
  47   23   48 1
  48   25   49 1
  49   25   50 1
  50   25   51 1
  51   26   27 ar
  52   26   52 1
  53   27   28 ar
  54   27   53 1
  55   28   29 1

#	End of record

