#	Name: ASD01148906
#	Creating user name:	WinNT
#	Creation time:	15. 06. 2019 19:03

#	Modifying user name:	WinNT
#	Modification time:	15. 06. 2019 19:03

#	Program:	/corina/corina34_cracker 3.40 0067  02.08.2006

@<TRIPOS>MOLECULE
ASD01148906
  48   51    0    0    0
SMALL
NO_CHARGES


@<TRIPOS>ATOM
   1 C1            -0.4552     0.2975    -0.4640 C.ar    
   2 C2            -0.1351    -1.0476    -0.4465 C.ar    
   3 C3             1.1837    -1.4438    -0.3387 C.ar    
   4 C4             2.1884    -0.4898    -0.2483 C.ar    
   5 C5             1.8639     0.8600    -0.2665 C.ar    
   6 C6             0.5433     1.2499    -0.3741 C.ar    
   7 S7            -2.1381     0.7989    -0.6083 S.o2    
   8 O8            -2.1201     2.1155    -1.1428 O.2     
   9 O9            -2.8270    -0.2806    -1.2243 O.2     
  10 N10           -2.7453     0.9258     0.9271 N.am    
  11 N11            3.5273    -0.8886    -0.1383 N.pl3   
  12 C12            4.5000    -0.7045    -1.0909 C.2     
  13 C13            5.6623    -1.2281    -0.6077 C.2     
  14 C14            5.3910    -1.7435     0.6701 C.2     
  15 C15            4.0854    -1.5199     0.9357 C.2     
  16 C16            3.3657    -1.9058     2.2023 C.3     
  17 C17            3.9782     1.1627    -4.8728 C.ar    
  18 C18            5.2532     1.0603    -4.3160 C.ar    
  19 C19            5.4233     0.4557    -3.0909 C.ar    
  20 C20            4.3186    -0.0552    -2.4053 C.ar    
  21 C21            3.0422     0.0480    -2.9637 C.ar    
  22 C22            2.8744     0.6529    -4.1889 C.ar    
  23 C23            3.7954     1.8191    -6.1897 C.ar    
  24 C24            2.5228     1.9232    -6.7490 C.ar    
  25 C25            2.3588     2.5351    -7.9750 C.ar    
  26 C26            3.4542     3.0446    -8.6488 C.ar    
  27 C27            4.7195     2.9442    -8.0987 C.ar    
  28 C28            4.8949     2.3395    -6.8707 C.ar    
  29 H29           -0.9171    -1.7892    -0.5168 H       
  30 H30            1.4330    -2.4945    -0.3244 H       
  31 H31            2.6433     1.6043    -0.1960 H       
  32 H32            0.2902     2.2998    -0.3880 H       
  33 H33           -3.4491     1.5651     1.1190 H       
  34 H34           -2.3971     0.3609     1.6346 H       
  35 H35            6.6159    -1.2441    -1.1145 H       
  36 H36            6.1000    -2.2281     1.3250 H       
  37 H37            2.9551    -2.9098     2.0954 H       
  38 H38            4.0652    -1.8864     3.0380 H       
  39 H39            2.5563    -1.2002     2.3895 H       
  40 H40            6.1071     1.4553    -4.8463 H       
  41 H41            6.4106     0.3758    -2.6604 H       
  42 H42            2.1875    -0.3470    -2.4346 H       
  43 H43            1.8877     0.7328    -4.6209 H       
  44 H44            1.6669     1.5255    -6.2240 H       
  45 H45            1.3733     2.6160    -8.4094 H       
  46 H46            3.3211     3.5224    -9.6082 H       
  47 H47            5.5712     3.3435    -8.6294 H       
  48 H48            5.8826     2.2656    -6.4401 H       
@<TRIPOS>BOND
   1    1    2 ar
   2    1    6 ar
   3    1    7 1
   4    2    3 ar
   5    2   29 1
   6    3    4 ar
   7    3   30 1
   8    4    5 ar
   9    4   11 1
  10    5    6 ar
  11    5   31 1
  12    6   32 1
  13    7    8 2
  14    7    9 2
  15    7   10 am
  16   10   33 1
  17   10   34 1
  18   11   12 1
  19   11   15 1
  20   12   13 2
  21   12   20 1
  22   13   14 1
  23   13   35 1
  24   14   15 2
  25   14   36 1
  26   15   16 1
  27   16   37 1
  28   16   38 1
  29   16   39 1
  30   17   18 ar
  31   17   22 ar
  32   17   23 1
  33   18   19 ar
  34   18   40 1
  35   19   20 ar
  36   19   41 1
  37   20   21 ar
  38   21   22 ar
  39   21   42 1
  40   22   43 1
  41   23   24 ar
  42   23   28 ar
  43   24   25 ar
  44   24   44 1
  45   25   26 ar
  46   25   45 1
  47   26   27 ar
  48   26   46 1
  49   27   28 ar
  50   27   47 1
  51   28   48 1

#	End of record

