#	Name: ASD04880134
#	Creating user name:	WinNT
#	Creation time:	15. 06. 2019 20:52

#	Modifying user name:	WinNT
#	Modification time:	15. 06. 2019 20:52

#	Program:	/corina/corina34_cracker 3.40 0067  02.08.2006

@<TRIPOS>MOLECULE
ASD04880134
  63   66    0    0    0
SMALL
NO_CHARGES


@<TRIPOS>ATOM
   1 C1             0.1231     1.4457    -0.0591 C.3     
   2 O2            -0.5204     0.2820     0.4641 O.3     
   3 C3             0.0851    -0.3404     1.5082 C.ar    
   4 C4             1.2721     0.1639     2.0211 C.ar    
   5 C5             1.8908    -0.4643     3.0804 C.ar    
   6 C6             1.3231    -1.6111     3.6406 C.ar    
   7 C7             0.1275    -2.1189     3.1244 C.ar    
   8 C8            -0.4900    -1.4816     2.0663 C.ar    
   9 O9            -1.6563    -1.9698     1.5653 O.3     
  10 C10           -2.1886    -3.1419     2.1856 C.3     
  11 C11            1.9845    -2.2853     4.7745 C.2     
  12 O12            1.4892    -3.2835     5.2611 O.2     
  13 N13            3.1376    -1.7947     5.2707 N.am    
  14 C14            3.7131    -2.3744     6.4058 C.ar    
  15 C15            3.6307    -3.7466     6.6042 C.ar    
  16 C16            4.2005    -4.3161     7.7260 C.ar    
  17 C17            4.8527    -3.5216     8.6511 C.ar    
  18 C18            4.9361    -2.1551     8.4568 C.ar    
  19 C19            4.3734    -1.5800     7.3343 C.ar    
  20 C20            5.4733    -4.1465     9.8740 C.3     
  21 C21            4.3901    -4.8537    10.6909 C.3     
  22 C22            6.5337    -5.1626     9.4452 C.3     
  23 C23            6.1263    -3.0574    10.7275 C.3     
  24 N24            6.7296    -3.6648    11.9163 N.am    
  25 C25            7.3656    -2.8919    12.8189 C.2     
  26 O26            7.4386    -1.6892    12.6464 O.2     
  27 C27            7.9692    -3.4996    14.0083 C.2     
  28 C28            7.9729    -4.8652    14.3409 C.2     
  29 N29            8.6070    -5.0200    15.4737 N.2     
  30 N30            9.0482    -3.7753    15.9390 N.pl3   
  31 C31            9.7435    -3.4124    17.0530 C.2     
  32 C32           10.0545    -2.1167    17.2811 C.2     
  33 C33            9.6645    -1.1247    16.3711 C.2     
  34 C34            8.9682    -1.4782    15.2522 C.2     
  35 C35            8.6622    -2.8279    15.0342 C.2     
  36 H36            1.1195     1.1816    -0.4135 H       
  37 H37           -0.4633     1.8438    -0.8872 H       
  38 H38            0.2040     2.1994     0.7242 H       
  39 H39            1.7121     1.0505     1.5890 H       
  40 H40            2.8147    -0.0702     3.4772 H       
  41 H41           -0.3145    -3.0054     3.5548 H       
  42 H42           -2.3844    -2.9388     3.2384 H       
  43 H43           -3.1180    -3.4245     1.6911 H       
  44 H44           -1.4695    -3.9566     2.1003 H       
  45 H45            3.5682    -1.0394     4.8406 H       
  46 H46            3.1212    -4.3676     5.8823 H       
  47 H47            4.1365    -5.3830     7.8811 H       
  48 H48            5.4455    -1.5373     9.1815 H       
  49 H49            4.4431    -0.5133     7.1807 H       
  50 H50            3.9249    -5.6295    10.0829 H       
  51 H51            4.8390    -5.3056    11.5754 H       
  52 H52            3.6346    -4.1297    10.9965 H       
  53 H53            7.3054    -4.6588     8.8632 H       
  54 H54            6.9826    -5.6146    10.3297 H       
  55 H55            6.0685    -5.9385     8.8371 H       
  56 H56            6.8980    -2.5536    10.1456 H       
  57 H57            5.3709    -2.3335    11.0331 H       
  58 H58            6.6714    -4.6232    12.0539 H       
  59 H59            7.5254    -5.6561    13.7572 H       
  60 H60           10.0492    -4.1679    17.7617 H       
  61 H61           10.6059    -1.8447    18.1690 H       
  62 H62            9.9125    -0.0896    16.5541 H       
  63 H63            8.6596    -0.7265    14.5408 H       
@<TRIPOS>BOND
   1    1    2 1
   2    1   36 1
   3    1   37 1
   4    1   38 1
   5    2    3 1
   6    3    8 ar
   7    3    4 ar
   8    4    5 ar
   9    4   39 1
  10    5    6 ar
  11    5   40 1
  12    6    7 ar
  13    6   11 1
  14    7    8 ar
  15    7   41 1
  16    8    9 1
  17    9   10 1
  18   10   42 1
  19   10   43 1
  20   10   44 1
  21   11   12 2
  22   11   13 am
  23   13   14 1
  24   13   45 1
  25   14   19 ar
  26   14   15 ar
  27   15   16 ar
  28   15   46 1
  29   16   17 ar
  30   16   47 1
  31   17   18 ar
  32   17   20 1
  33   18   19 ar
  34   18   48 1
  35   19   49 1
  36   20   21 1
  37   20   22 1
  38   20   23 1
  39   21   50 1
  40   21   51 1
  41   21   52 1
  42   22   53 1
  43   22   54 1
  44   22   55 1
  45   23   24 1
  46   23   56 1
  47   23   57 1
  48   24   25 am
  49   24   58 1
  50   25   26 2
  51   25   27 1
  52   27   35 2
  53   27   28 1
  54   28   29 2
  55   28   59 1
  56   29   30 1
  57   30   35 1
  58   30   31 1
  59   31   32 2
  60   31   60 1
  61   32   33 1
  62   32   61 1
  63   33   34 2
  64   33   62 1
  65   34   35 1
  66   34   63 1

#	End of record

