#	Name: ASD07930556
#	Creating user name:	WinNT
#	Creation time:	15. 06. 2019 21:12

#	Modifying user name:	WinNT
#	Modification time:	15. 06. 2019 21:12

#	Program:	/corina/corina34_cracker 3.40 0067  02.08.2006

@<TRIPOS>MOLECULE
ASD07930556
  48   50    0    0    0
SMALL
NO_CHARGES


@<TRIPOS>ATOM
   1 C1            -0.0337     1.4578     0.0422 C.3     
   2 N2             0.7957    -0.4140    -2.1303 N.2     
   3 N3            -0.8902    -1.7838    -1.2685 N.pl3   
   4 C4            -0.9149    -2.8273    -0.2382 C.3     
   5 C5            -1.2299    -2.1886     1.1215 C.3     
   6 S6             0.0064    -0.8916     1.4433 S.o2    
   7 N7            -0.0136    -0.0070     0.0314 N.am    
   8 C8            -0.0109    -0.7264    -1.1553 C.2     
   9 C9             0.4500    -3.5158    -0.1754 C.3     
  10 C10           -1.9765    -3.8424    -0.5754 C.ar    
  11 C11           -2.8069    -3.6379    -1.6601 C.ar    
  12 C12           -3.7852    -4.5731    -1.9717 C.ar    
  13 C13           -3.9271    -5.7130    -1.1920 C.ar    
  14 C14           -3.0939    -5.9148    -0.1065 C.ar    
  15 C15           -2.1147    -4.9816     0.1989 C.ar    
  16 O16           -0.4572     0.0116     2.4376 O.2     
  17 O17            1.3142    -1.4444     1.5003 O.2     
  18 F18           -1.3010    -5.1796     1.2590 F       
  19 N19           -4.6273    -4.3665    -3.0703 N.am    
  20 C20           -5.0472    -5.4160    -3.8043 C.2     
  21 O21           -4.6183    -6.5299    -3.5732 O.2     
  22 C22           -6.0281    -5.2128    -4.8892 C.ar    
  23 C23           -6.4738    -6.2966    -5.6610 C.ar    
  24 N24           -7.4077    -3.7595    -6.1283 N.ar    
  25 C25           -6.5328    -3.9404    -5.1613 C.ar    
  26 C26           -7.3963    -6.0497    -6.6682 C.ar    
  27 C27           -7.8406    -4.7585    -6.8752 C.ar    
  28 F28           -6.0167    -7.5469    -5.4304 F       
  29 F29          -10.1377    -4.6045    -7.4528 F       
  30 F30           -8.6532    -3.1912    -8.4618 F       
  31 C31           -8.8423    -4.4864    -7.9678 C.3     
  32 F32           -8.6659    -5.4107    -9.0030 F       
  33 F33           -3.2311    -7.0233     0.6535 F       
  34 H34            0.9889     1.8352     0.0391 H       
  35 H35           -0.5575     1.8205    -0.8422 H       
  36 H36           -0.5473     1.8075     0.9377 H       
  37 H37            1.4076     0.3324    -2.0333 H       
  38 H38           -1.4881    -1.8390    -2.0303 H       
  39 H39           -2.2268    -1.7484     1.0986 H       
  40 H40           -1.1799    -2.9461     1.9037 H       
  41 H41            1.2166    -2.7810     0.0705 H       
  42 H42            0.4310    -4.2911     0.5905 H       
  43 H43            0.6749    -3.9657    -1.1424 H       
  44 H44           -2.6956    -2.7505    -2.2656 H       
  45 H45           -4.6875    -6.4413    -1.4325 H       
  46 H46           -4.9088    -3.4680    -3.3034 H       
  47 H47           -6.2030    -3.0968    -4.5732 H       
  48 H48           -7.7624    -6.8583    -7.2834 H       
@<TRIPOS>BOND
   1    1    7 1
   2    1   34 1
   3    1   35 1
   4    1   36 1
   5    2    8 2
   6    2   37 1
   7    3    4 1
   8    3    8 1
   9    3   38 1
  10    4    5 1
  11    4    9 1
  12    4   10 1
  13    5    6 1
  14    5   39 1
  15    5   40 1
  16    6    7 am
  17    6   16 2
  18    6   17 2
  19    7    8 1
  20    9   41 1
  21    9   42 1
  22    9   43 1
  23   10   11 ar
  24   10   15 ar
  25   11   12 ar
  26   11   44 1
  27   12   13 ar
  28   12   19 1
  29   13   14 ar
  30   13   45 1
  31   14   15 ar
  32   14   33 1
  33   15   18 1
  34   19   20 am
  35   19   46 1
  36   20   21 2
  37   20   22 1
  38   22   23 ar
  39   22   25 ar
  40   23   26 ar
  41   23   28 1
  42   24   25 ar
  43   24   27 ar
  44   25   47 1
  45   26   27 ar
  46   26   48 1
  47   27   31 1
  48   29   31 1
  49   30   31 1
  50   31   32 1

#	End of record

