#	Name: ASD01180232
#	Creating user name:	WinNT
#	Creation time:	15. 06. 2019 19:07

#	Modifying user name:	WinNT
#	Modification time:	15. 06. 2019 19:07

#	Program:	/corina/corina34_cracker 3.40 0067  02.08.2006

@<TRIPOS>MOLECULE
ASD01180232
  41   42    0    0    0
SMALL
NO_CHARGES


@<TRIPOS>ATOM
   1 C1            -0.0187     1.5258     0.0104 C.3     
   2 C2             0.0021    -0.0041     0.0020 C.3     
   3 C3             0.7421    -0.5109     1.2415 C.3     
   4 S4            -1.6997    -0.6320     0.0149 S.o     
   5 O5            -1.6913    -2.0286    -0.2471 O.2     
   6 N6            -2.3418     0.0035    -1.3730 N.am    
   7 C7            -3.5709    -0.2455    -1.6902 C.2     
   8 C8            -4.1429     0.3207    -2.9268 C.ar    
   9 C9            -5.4705     0.0521    -3.2699 C.ar    
  10 C10           -6.0031     0.5809    -4.4241 C.ar    
  11 C11           -5.2178     1.3843    -5.2511 C.ar    
  12 C12           -3.8922     1.6532    -4.9096 C.ar    
  13 C13           -3.3591     1.1306    -3.7528 C.ar    
  14 C14           -5.7923     1.9524    -6.4943 C.ar    
  15 C15           -5.0032     2.7544    -7.3168 C.ar    
  16 C16           -5.5535     3.2775    -8.4741 C.ar    
  17 C17           -6.8763     2.9813    -8.7712 C.ar    
  18 C18           -7.6015     2.1784    -7.9099 C.ar    
  19 N19           -7.0519     1.6888    -6.8174 N.ar    
  20 C20           -7.5166     3.5298   -10.0203 C.3     
  21 F21           -7.3253     2.6314   -11.0755 F       
  22 F22           -8.8869     3.7081    -9.8022 F       
  23 F23           -6.9318     4.7592   -10.3428 F       
  24 C24            0.7182    -0.4975    -1.2568 C.3     
  25 H25            1.0039     1.9031     0.0027 H       
  26 H26           -0.5459     1.8868    -0.8726 H       
  27 H27           -0.5289     1.8773     0.9072 H       
  28 H28            0.2319    -0.1594     2.1383 H       
  29 H29            0.7568    -1.6008     1.2356 H       
  30 H30            1.7647    -0.1336     1.2338 H       
  31 H31           -4.1783    -0.8678    -1.0498 H       
  32 H32           -6.0785    -0.5704    -2.6302 H       
  33 H33           -7.0292     0.3735    -4.6896 H       
  34 H34           -3.2851     2.2750    -5.5509 H       
  35 H35           -2.3343     1.3429    -3.4862 H       
  36 H36           -3.9768     2.9649    -7.0548 H       
  37 H37           -4.9667     3.9026    -9.1309 H       
  38 H38           -8.6313     1.9463    -8.1381 H       
  39 H39            1.7408    -0.1202    -1.2645 H       
  40 H40            0.7330    -1.5874    -1.2628 H       
  41 H41            0.1910    -0.1364    -2.1398 H       
@<TRIPOS>BOND
   1    1    2 1
   2    1   25 1
   3    1   26 1
   4    1   27 1
   5    2    3 1
   6    2    4 1
   7    2   24 1
   8    3   28 1
   9    3   29 1
  10    3   30 1
  11    4    5 2
  12    4    6 am
  13    6    7 2
  14    7    8 1
  15    7   31 1
  16    8    9 ar
  17    8   13 ar
  18    9   10 ar
  19    9   32 1
  20   10   11 ar
  21   10   33 1
  22   11   12 ar
  23   11   14 1
  24   12   13 ar
  25   12   34 1
  26   13   35 1
  27   14   15 ar
  28   14   19 ar
  29   15   16 ar
  30   15   36 1
  31   16   17 ar
  32   16   37 1
  33   17   18 ar
  34   17   20 1
  35   18   19 ar
  36   18   38 1
  37   20   21 1
  38   20   22 1
  39   20   23 1
  40   24   39 1
  41   24   40 1
  42   24   41 1

#	End of record

