#	Name: ASD08178079
#	Creating user name:	WinNT
#	Creation time:	15. 06. 2019 21:18

#	Modifying user name:	WinNT
#	Modification time:	15. 06. 2019 21:18

#	Program:	/corina/corina34_cracker 3.40 0067  02.08.2006

@<TRIPOS>MOLECULE
ASD08178079
 117  122    0    0    0
SMALL
NO_CHARGES


@<TRIPOS>ATOM
   1 N1            -0.0616     4.3094    -0.3200 N.2     
   2 N2             0.3096     3.1029    -0.3371 N.2     
   3 C3             0.8606     5.2237    -0.2901 C.2     
   4 S4             2.3930     4.4578    -0.2827 S.3     
   5 C5             1.5870     2.8893    -0.3230 C.2     
   6 N6             0.6405     6.5967    -0.2683 N.am    
   7 C7            -0.6186     7.0776    -0.2771 C.2     
   8 O8            -1.5596     6.3129    -0.3041 O.2     
   9 C9             2.2633     1.5426    -0.3383 C.3     
  10 C10            4.2191    -2.1949    -3.7631 C.3     
  11 C11            4.3919    -2.4707    -5.2346 C.2     
  12 N12            5.4143    -2.1418    -5.9586 N.2     
  13 S13            3.2414    -3.3062    -6.2786 S.3     
  14 C14            4.3132    -3.0927    -7.5979 C.2     
  15 N15            5.3695    -2.4637    -7.1785 N.2     
  16 N16            4.0913    -3.5253    -8.9008 N.am    
  17 C17            5.0161    -3.2955    -9.8539 C.2     
  18 O18            6.0418    -2.7114    -9.5753 O.2     
  19 C19            4.7756    -3.7644   -11.2658 C.3     
  20 C20           -0.8571     8.5654    -0.2535 C.3     
  21 C21            2.5124     1.1135    -1.7856 C.3     
  22 S22            3.3264    -0.5075    -1.8041 S.3     
  23 C23            3.5344    -0.8395    -3.5753 C.3     
  24 C24           -0.2181     9.1959    -1.4639 C.ar    
  25 C25            0.4921    10.3748    -1.3354 C.ar    
  26 C26            1.0782    10.9532    -2.4457 C.ar    
  27 C27            0.9545    10.3524    -3.6845 C.ar    
  28 C28            0.2450     9.1729    -3.8129 C.ar    
  29 C29           -0.3374     8.5923    -2.7018 C.ar    
  30 C30            3.5276    -3.1144   -11.8052 C.ar    
  31 C31            2.8039    -3.7331   -12.8075 C.ar    
  32 C32            3.1032    -1.9022   -11.2939 C.ar    
  33 C33            1.9584    -1.3060   -11.7887 C.ar    
  34 C34            1.2382    -1.9217   -12.7952 C.ar    
  35 C35            1.6592    -3.1369   -13.3023 C.ar    
  36 N36           -2.3020     8.8299    -0.2688 N.3     
  37 C37           -2.9446     8.3141     0.9474 C.3     
  38 C38           -2.9260     8.2752    -1.4774 C.3     
  39 C39           -4.3891     8.7256    -1.5456 C.3     
  40 N40           -5.0491     8.3624    -0.2823 N.am    
  41 C41           -4.4084     8.7661     0.9786 C.3     
  42 C42           -6.2103     7.6782    -0.2802 C.2     
  43 O43           -6.7258     7.3531    -1.3314 O.2     
  44 O44           -6.7991     7.3550     0.8866 O.3     
  45 C45           -8.0478     6.6178     0.8129 C.3     
  46 C46           -7.8143     5.2904     0.0887 C.3     
  47 C47           -8.5623     6.3434     2.2274 C.3     
  48 C48           -9.0825     7.4427     0.0449 C.3     
  49 N49            5.9224    -3.3952   -12.1064 N.3     
  50 C50            7.1461    -4.0698   -11.6531 C.3     
  51 C51            8.2734    -3.8043   -12.6566 C.3     
  52 N52            8.3979    -2.3510   -12.8455 N.am    
  53 C53            7.1846    -1.5846   -13.1673 C.3     
  54 C54            6.1001    -1.9375   -12.1438 C.3     
  55 C55            9.5924    -1.7379   -12.7274 C.2     
  56 O56           10.5847    -2.3868   -12.4614 O.2     
  57 O57            9.6860    -0.4065   -12.9041 O.3     
  58 C58           11.0039     0.1863   -12.7616 C.3     
  59 C59           11.9551    -0.4325   -13.7878 C.3     
  60 C60           10.9123     1.6954   -12.9961 C.3     
  61 C61           11.5328    -0.0794   -11.3507 C.3     
  62 H62            1.3931     7.2083    -0.2468 H       
  63 H63            3.2143     1.6076     0.1902 H       
  64 H64            1.6238     0.8093     0.1531 H       
  65 H65            3.6052    -2.9770    -3.3165 H       
  66 H66            5.1957    -2.1788    -3.2794 H       
  67 H67            3.2709    -3.9925    -9.1236 H       
  68 H68            4.6534    -4.8475   -11.2732 H       
  69 H69           -0.4197     8.9891     0.6505 H       
  70 H70            1.5614     1.0485    -2.3142 H       
  71 H71            3.1519     1.8468    -2.2771 H       
  72 H72            4.1483    -0.0574    -4.0219 H       
  73 H73            2.5578    -0.8557    -4.0591 H       
  74 H74            0.5888    10.8443    -0.3676 H       
  75 H75            1.6325    11.8747    -2.3455 H       
  76 H76            1.4118    10.8046    -4.5521 H       
  77 H77            0.1481     8.7037    -4.7808 H       
  78 H78           -0.8917     7.6708    -2.8021 H       
  79 H79            3.1332    -4.6821   -13.2041 H       
  80 H80            3.6660    -1.4211   -10.5076 H       
  81 H81            1.6266    -0.3593   -11.3887 H       
  82 H82            0.3436    -1.4561   -13.1815 H       
  83 H83            1.0964    -3.6179   -14.0887 H       
  84 H84           -2.9000     7.2250     0.9483 H       
  85 H85           -2.4258     8.7005     1.8247 H       
  86 H86           -2.3938     8.6333    -2.3587 H       
  87 H87           -2.8817     7.1866    -1.4427 H       
  88 H88           -4.4336     9.8057    -1.6846 H       
  89 H89           -4.8878     8.2258    -2.3760 H       
  90 H90           -4.9199     8.2931     1.8170 H       
  91 H91           -4.4548     9.8502     1.0822 H       
  92 H92           -7.0772     4.7027     0.6358 H       
  93 H93           -8.7517     4.7369     0.0334 H       
  94 H94           -7.4478     5.4859    -0.9190 H       
  95 H95           -8.7286     7.2890     2.7434 H       
  96 H96           -9.4997     5.7899     2.1721 H       
  97 H97           -7.8252     5.7557     2.7746 H       
  98 H98           -8.7159     7.6381    -0.9628 H       
  99 H99          -10.0199     6.8892    -0.0104 H       
 100 H100          -9.2488     8.3883     0.5609 H       
 101 H101           7.4323    -3.6850   -10.6743 H       
 102 H102           6.9658    -5.1426   -11.5841 H       
 103 H103           9.2102    -4.2048   -12.2692 H       
 104 H104           8.0352    -4.2782   -13.6088 H       
 105 H105           7.4015    -0.5175   -13.1177 H       
 106 H106           6.8417    -1.8452   -14.1686 H       
 107 H107           5.1613    -1.4639   -12.4306 H       
 108 H108           6.4009    -1.5824   -11.1581 H       
 109 H109          11.5783    -0.2432   -14.7929 H       
 110 H110          12.9443     0.0125   -13.6809 H       
 111 H111          12.0203    -1.5076   -13.6208 H       
 112 H112          10.2346     2.1363   -12.2650 H       
 113 H113          11.9016     2.1404   -12.8892 H       
 114 H114          10.5355     1.8847   -14.0012 H       
 115 H115          11.5980    -1.1546   -11.1837 H       
 116 H116          12.5221     0.3656   -11.2438 H       
 117 H117          10.8551     0.3614   -10.6196 H       
@<TRIPOS>BOND
   1    1    2 1
   2    1    3 2
   3    2    5 2
   4    3    4 1
   5    3    6 1
   6    4    5 1
   7    5    9 1
   8    6    7 am
   9    6   62 1
  10    7    8 2
  11    7   20 1
  12    9   21 1
  13    9   63 1
  14    9   64 1
  15   10   11 1
  16   10   23 1
  17   10   65 1
  18   10   66 1
  19   11   12 2
  20   11   13 1
  21   12   15 1
  22   13   14 1
  23   14   15 2
  24   14   16 1
  25   16   17 am
  26   16   67 1
  27   17   18 2
  28   17   19 1
  29   19   49 1
  30   19   30 1
  31   19   68 1
  32   20   36 1
  33   20   24 1
  34   20   69 1
  35   21   22 1
  36   21   70 1
  37   21   71 1
  38   22   23 1
  39   23   72 1
  40   23   73 1
  41   24   25 ar
  42   24   29 ar
  43   25   26 ar
  44   25   74 1
  45   26   27 ar
  46   26   75 1
  47   27   28 ar
  48   27   76 1
  49   28   29 ar
  50   28   77 1
  51   29   78 1
  52   30   31 ar
  53   30   32 ar
  54   31   35 ar
  55   31   79 1
  56   32   33 ar
  57   32   80 1
  58   33   34 ar
  59   33   81 1
  60   34   35 ar
  61   34   82 1
  62   35   83 1
  63   36   37 1
  64   36   38 1
  65   37   41 1
  66   37   84 1
  67   37   85 1
  68   38   39 1
  69   38   86 1
  70   38   87 1
  71   39   40 1
  72   39   88 1
  73   39   89 1
  74   40   41 1
  75   40   42 am
  76   41   90 1
  77   41   91 1
  78   42   43 2
  79   42   44 1
  80   44   45 1
  81   45   46 1
  82   45   47 1
  83   45   48 1
  84   46   92 1
  85   46   93 1
  86   46   94 1
  87   47   95 1
  88   47   96 1
  89   47   97 1
  90   48   98 1
  91   48   99 1
  92   48  100 1
  93   49   50 1
  94   49   54 1
  95   50   51 1
  96   50  101 1
  97   50  102 1
  98   51   52 1
  99   51  103 1
 100   51  104 1
 101   52   53 1
 102   52   55 am
 103   53   54 1
 104   53  105 1
 105   53  106 1
 106   54  107 1
 107   54  108 1
 108   55   56 2
 109   55   57 1
 110   57   58 1
 111   58   59 1
 112   58   60 1
 113   58   61 1
 114   59  109 1
 115   59  110 1
 116   59  111 1
 117   60  112 1
 118   60  113 1
 119   60  114 1
 120   61  115 1
 121   61  116 1
 122   61  117 1

#	End of record

