#	Name: ASD07930745
#	Creating user name:	WinNT
#	Creation time:	15. 06. 2019 21:13

#	Modifying user name:	WinNT
#	Modification time:	15. 06. 2019 21:13

#	Program:	/corina/corina34_cracker 3.40 0067  02.08.2006

@<TRIPOS>MOLECULE
ASD07930745
  49   51    0    0    0
SMALL
NO_CHARGES


@<TRIPOS>ATOM
   1 C1             1.8494    -1.4399     2.8726 C.3     
   2 N2            -0.7622    -0.2051     2.1206 N.2     
   3 N3            -1.1780    -2.2713     1.1111 N.pl3   
   4 C4            -0.9281    -2.8076    -0.2309 C.3     
   5 C5             0.4552    -3.4720    -0.2608 C.3     
   6 S6             1.6911    -2.2417     0.2618 S.o2    
   7 N7             1.0361    -1.6392     1.6705 N.am    
   8 C8            -0.3178    -1.3360     1.6490 C.2     
   9 C9            -0.9704    -1.6691    -1.2521 C.3     
  10 O10            2.8944    -2.8777     0.6704 O.2     
  11 O11            1.7070    -1.1335    -0.6276 O.2     
  12 C12           -1.9840    -3.8282    -0.5696 C.ar    
  13 C13           -2.1181    -4.9688     0.2069 C.ar    
  14 C14           -3.0876    -5.9121    -0.0991 C.ar    
  15 C15           -3.9234    -5.7198    -1.1779 C.ar    
  16 C16           -3.7929    -4.5721    -1.9634 C.ar    
  17 C17           -2.8184    -3.6231    -1.6476 C.ar    
  18 F18           -1.3011    -5.1624     1.2653 F       
  19 C19           -4.6855    -4.3609    -3.1210 C.2     
  20 O20           -4.5700    -3.3612    -3.8032 O.2     
  21 N21           -5.6280    -5.2764    -3.4211 N.am    
  22 C22           -6.5437    -5.0264    -4.4481 C.ar    
  23 C23           -7.0014    -6.0703    -5.2418 C.ar    
  24 C24           -7.9061    -5.8201    -6.2548 C.ar    
  25 C25           -8.3559    -4.5319    -6.4797 C.ar    
  26 C26           -7.9021    -3.4904    -5.6913 C.ar    
  27 C27           -7.0018    -3.7347    -4.6729 C.ar    
  28 C28           -9.3423    -4.2625    -7.5867 C.3     
  29 F29          -10.6447    -4.3807    -7.0897 F       
  30 F30           -9.1472    -2.9681    -8.0803 F       
  31 F31           -9.1507    -5.1885    -8.6177 F       
  32 H32            2.2704    -0.4345     2.8639 H       
  33 H33            1.2260    -1.5650     3.7580 H       
  34 H34            2.6569    -2.1718     2.8905 H       
  35 H35           -0.1431     0.4411     2.4948 H       
  36 H36           -1.9489    -2.5706     1.6182 H       
  37 H37            0.4701    -4.3209     0.4227 H       
  38 H38            0.6786    -3.8103    -1.2727 H       
  39 H39           -0.2050    -0.9327    -1.0072 H       
  40 H40           -0.7846    -2.0684    -2.2492 H       
  41 H41           -1.9517    -1.1952    -1.2275 H       
  42 H42           -3.1876    -6.7990     0.5088 H       
  43 H43           -4.6776    -6.4553    -1.4158 H       
  44 H44           -2.7136    -2.7338    -2.2513 H       
  45 H45           -5.6711    -6.1087    -2.9248 H       
  46 H46           -6.6500    -7.0765    -5.0671 H       
  47 H47           -8.2625    -6.6314    -6.8723 H       
  48 H48           -8.2553    -2.4855    -5.8695 H       
  49 H49           -6.6481    -2.9209    -4.0573 H       
@<TRIPOS>BOND
   1    1    7 1
   2    1   32 1
   3    1   33 1
   4    1   34 1
   5    2    8 2
   6    2   35 1
   7    3    4 1
   8    3    8 1
   9    3   36 1
  10    4    5 1
  11    4    9 1
  12    4   12 1
  13    5    6 1
  14    5   37 1
  15    5   38 1
  16    6    7 am
  17    6   10 2
  18    6   11 2
  19    7    8 1
  20    9   39 1
  21    9   40 1
  22    9   41 1
  23   12   13 ar
  24   12   17 ar
  25   13   14 ar
  26   13   18 1
  27   14   15 ar
  28   14   42 1
  29   15   16 ar
  30   15   43 1
  31   16   17 ar
  32   16   19 1
  33   17   44 1
  34   19   20 2
  35   19   21 am
  36   21   22 1
  37   21   45 1
  38   22   23 ar
  39   22   27 ar
  40   23   24 ar
  41   23   46 1
  42   24   25 ar
  43   24   47 1
  44   25   26 ar
  45   25   28 1
  46   26   27 ar
  47   26   48 1
  48   27   49 1
  49   28   29 1
  50   28   30 1
  51   28   31 1

#	End of record

