#	Name: ASD03731582
#	Creating user name:	WinNT
#	Creation time:	15. 06. 2019 20:46

#	Modifying user name:	WinNT
#	Modification time:	15. 06. 2019 20:46

#	Program:	/corina/corina34_cracker 3.40 0067  02.08.2006

@<TRIPOS>MOLECULE
ASD03731582
  36   37    0    0    0
SMALL
NO_CHARGES


@<TRIPOS>ATOM
   1 C1             0.7594     1.4144    -0.4004 C.2     
   2 C2             0.5748    -0.0458    -0.3006 C.ar    
   3 C3             1.5344    -0.9125    -0.8347 C.ar    
   4 C4             1.3573    -2.2761    -0.7389 C.ar    
   5 C5             0.2276    -2.7894    -0.1131 C.ar    
   6 C6            -0.7283    -1.9308     0.4183 C.ar    
   7 C7            -0.5565    -0.5675     0.3327 C.ar    
   8 O8             1.7469     1.8664    -0.9474 O.2     
   9 N9            -0.1690     2.2475     0.1099 N.am    
  10 S10            0.0383     3.8866    -0.0021 S.o2    
  11 O11           -1.1002     4.4294     0.6525 O.2     
  12 O12            1.3483     4.1094     0.5014 O.2     
  13 C13           -0.0267     4.2305    -1.7820 C.3     
  14 O14            0.0567    -4.1323    -0.0208 O.3     
  15 C15            0.5822    -4.7697     1.0583 C.ar    
  16 C16            1.1741    -4.0374     2.0776 C.ar    
  17 C17            1.7072    -4.6870     3.1737 C.ar    
  18 C18            1.6517    -6.0674     3.2557 C.ar    
  19 C19            1.0620    -6.7994     2.2405 C.ar    
  20 C20            0.5225    -6.1530     1.1451 C.ar    
  21 C21            2.3502    -3.8922     4.2809 C.3     
  22 F22            2.2860    -2.5287     3.9741 F       
  23 F23            1.6730    -4.1324     5.4813 F       
  24 F24            3.6883    -4.2775     4.4151 F       
  25 Cl25           2.3235    -6.8816     4.6339 Cl      
  26 Cl26           2.9455    -0.2716    -1.6170 Cl      
  27 H27            2.0970    -2.9464    -1.1511 H       
  28 H28           -1.6051    -2.3342     0.9032 H       
  29 H29           -1.2973     0.0981     0.7506 H       
  30 H30           -0.9587     1.8869     0.5428 H       
  31 H31           -0.9917     3.9144    -2.1781 H       
  32 H32            0.1026     5.2996    -1.9504 H       
  33 H33            0.7700     3.6842    -2.2869 H       
  34 H34            1.2183    -2.9602     2.0137 H       
  35 H35            1.0199    -7.8766     2.3062 H       
  36 H36            0.0582    -6.7245     0.3550 H       
@<TRIPOS>BOND
   1    1    2 1
   2    1    8 2
   3    1    9 am
   4    2    3 ar
   5    2    7 ar
   6    3    4 ar
   7    3   26 1
   8    4    5 ar
   9    4   27 1
  10    5    6 ar
  11    5   14 1
  12    6    7 ar
  13    6   28 1
  14    7   29 1
  15    9   10 am
  16    9   30 1
  17   10   11 2
  18   10   12 2
  19   10   13 1
  20   13   31 1
  21   13   32 1
  22   13   33 1
  23   14   15 1
  24   15   16 ar
  25   15   20 ar
  26   16   17 ar
  27   16   34 1
  28   17   18 ar
  29   17   21 1
  30   18   19 ar
  31   18   25 1
  32   19   20 ar
  33   19   35 1
  34   20   36 1
  35   21   22 1
  36   21   23 1
  37   21   24 1

#	End of record

