#	Name: ASD00170493
#	Creating user name:	WinNT
#	Creation time:	15. 06. 2019 18:32

#	Modifying user name:	WinNT
#	Modification time:	15. 06. 2019 18:32

#	Program:	/corina/corina34_cracker 3.40 0067  02.08.2006

@<TRIPOS>MOLECULE
ASD00170493
  46   49    0    0    0
SMALL
NO_CHARGES


@<TRIPOS>ATOM
   1 C1            -0.0167     1.3817     0.0096 C.ar    
   2 C2             0.0021    -0.0041     0.0020 C.ar    
   3 C3             1.2178    -0.6956     0.0018 C.ar    
   4 C4             2.4169     0.0129     0.0088 C.ar    
   5 C5             2.3794     1.4047    -0.0132 C.ar    
   6 C6             1.1716     2.0887     0.0021 C.ar    
   7 O7            -1.1678    -0.6951    -0.0048 O.3     
   8 C8            -2.3739     0.0711    -0.0037 C.3     
   9 C9             1.2301    -2.1788    -0.0054 C.ar    
  10 C10            1.7484    -2.8669    -1.1005 C.ar    
  11 C11            1.7595    -4.2474    -1.1067 C.ar    
  12 C12            1.2556    -4.9520    -0.0245 C.ar    
  13 C13            0.7358    -4.2693     1.0727 C.ar    
  14 C14            0.7283    -2.8864     1.0859 C.ar    
  15 O15            1.2683    -6.3117    -0.0343 O.3     
  16 C16            1.8154    -6.9470    -1.1915 C.3     
  17 O17            0.2415    -4.9624     2.1332 O.3     
  18 C18           -0.2757    -4.1976     3.2239 C.3     
  19 C19            3.7254    -0.7254     0.0807 C.3     
  20 C20            4.8167    -0.0250    -0.7270 C.3     
  21 C21            4.8077     1.4506    -0.4189 C.2     
  22 C22            3.6790     2.1391    -0.0973 C.2     
  23 S23            6.1688     2.5570    -0.4054 S.3     
  24 C24            5.0905     3.8836     0.0180 C.2     
  25 N25            3.8771     3.4392     0.1187 N.2     
  26 N26            5.4793     5.1990     0.2137 N.pl3   
  27 H27           -0.9591     1.9092     0.0170 H       
  28 H28            1.1601     3.1686     0.0077 H       
  29 H29           -3.2317    -0.6015    -0.0096 H       
  30 H30           -2.4074     0.6947     0.8897 H       
  31 H31           -2.4028     0.7046    -0.8903 H       
  32 H32            2.1413    -2.3202    -1.9450 H       
  33 H33            2.1613    -4.7794    -1.9564 H       
  34 H34            0.3259    -2.3557     1.9361 H       
  35 H35            1.7648    -8.0290    -1.0700 H       
  36 H36            1.2438    -6.6531    -2.0718 H       
  37 H37            2.8550    -6.6435    -1.3153 H       
  38 H38            0.5131    -3.5643     3.6299 H       
  39 H39           -1.0978    -3.5739     2.8727 H       
  40 H40           -0.6370    -4.8712     4.0010 H       
  41 H41            4.0402    -0.7896     1.1223 H       
  42 H42            3.5863    -1.7336    -0.3096 H       
  43 H43            5.7880    -0.4444    -0.4645 H       
  44 H44            4.6332    -0.1746    -1.7910 H       
  45 H45            6.4118     5.4483     0.1188 H       
  46 H46            4.8189     5.8705     0.4457 H       
@<TRIPOS>BOND
   1    1    2 ar
   2    1    6 ar
   3    1   27 1
   4    2    3 ar
   5    2    7 1
   6    3    4 ar
   7    3    9 1
   8    4    5 ar
   9    4   19 1
  10    5    6 ar
  11    5   22 1
  12    6   28 1
  13    7    8 1
  14    8   29 1
  15    8   30 1
  16    8   31 1
  17    9   10 ar
  18    9   14 ar
  19   10   11 ar
  20   10   32 1
  21   11   12 ar
  22   11   33 1
  23   12   13 ar
  24   12   15 1
  25   13   14 ar
  26   13   17 1
  27   14   34 1
  28   15   16 1
  29   16   35 1
  30   16   36 1
  31   16   37 1
  32   17   18 1
  33   18   38 1
  34   18   39 1
  35   18   40 1
  36   19   20 1
  37   19   41 1
  38   19   42 1
  39   20   21 1
  40   20   43 1
  41   20   44 1
  42   21   22 2
  43   21   23 1
  44   22   25 1
  45   23   24 1
  46   24   25 2
  47   24   26 1
  48   26   45 1
  49   26   46 1

#	End of record

