#	Name: ASD01880128
#	Creating user name:	WinNT
#	Creation time:	15. 06. 2019 19:40

#	Modifying user name:	WinNT
#	Modification time:	15. 06. 2019 19:40

#	Program:	/corina/corina34_cracker 3.40 0067  02.08.2006

@<TRIPOS>MOLECULE
ASD01880128
  55   56    0    0    0
SMALL
NO_CHARGES


@<TRIPOS>ATOM
   1 C1            -0.0167     1.3832     0.0096 C.ar    
   2 C2             0.0021    -0.0041     0.0020 C.ar    
   3 C3            -1.1903    -0.7238     0.0096 C.ar    
   4 C4            -2.3894    -0.0733     0.0250 C.ar    
   5 C5            -2.4280     1.3279     0.0333 C.ar    
   6 C6            -1.2255     2.0574     0.0306 C.ar    
   7 C7            -3.7142     2.0288     0.0499 C.2     
   8 C8            -5.0003     1.2434     0.0580 C.3     
   9 C9            -6.1872     2.2086     0.0750 C.3     
  10 C10           -7.4907     1.4162    -0.0425 C.3     
  11 C11           -6.1855     2.9959     1.3870 C.3     
  12 O12           -1.2502     3.4132     0.0391 O.3     
  13 O13            1.1880    -0.6629    -0.0133 O.3     
  14 C14            1.1367    -2.0909    -0.0205 C.3     
  15 C15            2.5599    -2.6523    -0.0376 C.3     
  16 C16            2.5050    -4.1813    -0.0453 C.3     
  17 C17            3.9282    -4.7426    -0.0625 C.3     
  18 O18            3.8770    -6.1707    -0.0696 O.3     
  19 C19            5.0648    -6.8306    -0.0850 C.ar    
  20 C20            5.0884    -8.2165    -0.0926 C.ar    
  21 C21            6.3019    -8.8869    -0.1083 C.ar    
  22 C22            7.4895    -8.1694    -0.1162 C.ar    
  23 C23            7.4635    -6.7877    -0.1081 C.ar    
  24 C24            6.2555    -6.1174    -0.0987 C.ar    
  25 C25            1.2775     2.1551     0.0014 C.3     
  26 O26            6.3282   -10.2456    -0.1154 O.3     
  27 O27           -3.7440     3.2418     0.0571 O.2     
  28 H28           -1.1656    -1.8035     0.0028 H       
  29 H29           -3.3097    -0.6384     0.0304 H       
  30 H30           -5.0512     0.6206    -0.8351 H       
  31 H31           -5.0339     0.6104     0.9447 H       
  32 H32           -6.1055     2.9000    -0.7637 H       
  33 H33           -7.5725     0.7248     0.7962 H       
  34 H34           -8.3364     2.1038    -0.0303 H       
  35 H35           -7.4920     0.8553    -0.9771 H       
  36 H36           -6.2673     2.3046     2.2257 H       
  37 H37           -5.2569     3.5605     1.4707 H       
  38 H38           -7.0312     3.6836     1.3991 H       
  39 H39           -1.2520     3.8011     0.9249 H       
  40 H40            0.6190    -2.4404     0.8728 H       
  41 H41            0.6013    -2.4309    -0.9070 H       
  42 H42            3.0776    -2.3028    -0.9310 H       
  43 H43            3.0953    -2.3124     0.8489 H       
  44 H44            1.9874    -4.5307     0.8480 H       
  45 H45            1.9697    -4.5212    -0.9318 H       
  46 H46            4.4459    -4.3931    -0.9558 H       
  47 H47            4.4636    -4.4027     0.8241 H       
  48 H48            4.1629    -8.7732    -0.0861 H       
  49 H49            8.4351    -8.6912    -0.1284 H       
  50 H50            8.3889    -6.2310    -0.1139 H       
  51 H51            6.2377    -5.0376    -0.0924 H       
  52 H52            1.5797     2.3468    -1.0281 H       
  53 H53            1.1386     3.1028     0.5217 H       
  54 H54            2.0503     1.5741     0.5048 H       
  55 H55            6.3269   -10.6344    -1.0008 H       
@<TRIPOS>BOND
   1    1    2 ar
   2    1   25 1
   3    1    6 ar
   4    2    3 ar
   5    2   13 1
   6    3    4 ar
   7    3   28 1
   8    4    5 ar
   9    4   29 1
  10    5    6 ar
  11    5    7 1
  12    6   12 1
  13    7    8 1
  14    7   27 2
  15    8    9 1
  16    8   30 1
  17    8   31 1
  18    9   10 1
  19    9   11 1
  20    9   32 1
  21   10   33 1
  22   10   34 1
  23   10   35 1
  24   11   36 1
  25   11   37 1
  26   11   38 1
  27   12   39 1
  28   13   14 1
  29   14   15 1
  30   14   40 1
  31   14   41 1
  32   15   16 1
  33   15   42 1
  34   15   43 1
  35   16   17 1
  36   16   44 1
  37   16   45 1
  38   17   18 1
  39   17   46 1
  40   17   47 1
  41   18   19 1
  42   19   20 ar
  43   19   24 ar
  44   20   21 ar
  45   20   48 1
  46   21   22 ar
  47   21   26 1
  48   22   23 ar
  49   22   49 1
  50   23   24 ar
  51   23   50 1
  52   24   51 1
  53   25   52 1
  54   25   53 1
  55   25   54 1
  56   26   55 1

#	End of record

