#	Name: ASD01916039
#	Creating user name:	WinNT
#	Creation time:	15. 06. 2019 20:06

#	Modifying user name:	WinNT
#	Modification time:	15. 06. 2019 20:06

#	Program:	/corina/corina34_cracker 3.40 0067  02.08.2006

@<TRIPOS>MOLECULE
ASD01916039
  37   38    0    0    0
SMALL
NO_CHARGES


@<TRIPOS>ATOM
   1 C1            -0.0170     1.3996     0.0097 C.ar    
   2 C2             0.0021    -0.0041     0.0020 C.ar    
   3 N3            -1.1425    -0.6581     0.0095 N.ar    
   4 C4            -2.2987    -0.0087     0.0240 C.ar    
   5 C5            -3.5607    -0.7876     0.0325 C.2     
   6 N6            -4.7471    -0.1483     0.0473 N.am    
   7 O7            -3.5251    -2.0021     0.0260 O.2     
   8 C8             1.2016     2.1517     0.0021 C.1     
   9 C9             2.2006     2.7683    -0.0041 C.1     
  10 C10            3.4192     3.5204    -0.0117 C.ar    
  11 C11            3.4011     4.9222    -0.0040 C.ar    
  12 C12            5.8126     3.6411    -0.0283 C.ar    
  13 C13            4.5982     5.6062    -0.0118 C.ar    
  14 N14           -2.3607     1.3159     0.0318 N.ar    
  15 C15           -1.2631     2.0459     0.0192 C.ar    
  16 C16            4.6637     2.8759    -0.0212 C.ar    
  17 N17            5.7487     4.9601    -0.0263 N.ar    
  18 C18           -5.9938    -0.9177     0.0556 C.3     
  19 C19           -7.1853     0.0419     0.0721 C.3     
  20 C20           -6.0612    -1.7931    -1.1975 C.3     
  21 F21           -7.1459     0.8538    -1.0666 F       
  22 F22           -8.3758    -0.6928     0.0800 F       
  23 F23           -7.1236     0.8423     1.2179 F       
  24 Cl24           7.3622     2.8588    -0.0472 Cl      
  25 C25           -6.0368    -1.8056     1.3009 C.3     
  26 H26            0.9398    -0.5398    -0.0102 H       
  27 H27           -4.7755     0.8213     0.0524 H       
  28 H28            2.4636     5.4582     0.0075 H       
  29 H29            4.5942     6.6862    -0.0063 H       
  30 H30           -1.3215     3.1243     0.0256 H       
  31 H31            4.7228     1.7975    -0.0225 H       
  32 H32           -5.2123    -2.4767    -1.2092 H       
  33 H33           -6.9887    -2.3655    -1.1913 H       
  34 H34           -6.0305    -1.1605    -2.0846 H       
  35 H35           -5.9887    -1.1820     2.1936 H       
  36 H36           -6.9643    -2.3781     1.3071 H       
  37 H37           -5.1879    -2.4893     1.2891 H       
@<TRIPOS>BOND
   1    1    2 ar
   2    1    8 1
   3    1   15 ar
   4    2    3 ar
   5    2   26 1
   6    3    4 ar
   7    4   14 ar
   8    4    5 1
   9    5    6 am
  10    5    7 2
  11    6   18 1
  12    6   27 1
  13    8    9 3
  14    9   10 1
  15   10   11 ar
  16   10   16 ar
  17   11   13 ar
  18   11   28 1
  19   12   17 ar
  20   12   24 1
  21   12   16 ar
  22   13   17 ar
  23   13   29 1
  24   14   15 ar
  25   15   30 1
  26   16   31 1
  27   18   20 1
  28   18   25 1
  29   18   19 1
  30   19   21 1
  31   19   22 1
  32   19   23 1
  33   20   32 1
  34   20   33 1
  35   20   34 1
  36   25   35 1
  37   25   36 1
  38   25   37 1

#	End of record

