#	Name: ASD05430092
#	Creating user name:	WinNT
#	Creation time:	15. 06. 2019 20:59

#	Modifying user name:	WinNT
#	Modification time:	15. 06. 2019 20:59

#	Program:	/corina/corina34_cracker 3.40 0067  02.08.2006

@<TRIPOS>MOLECULE
ASD05430092
  62   68    0    0    0
SMALL
NO_CHARGES


@<TRIPOS>ATOM
   1 C1            -0.0190     1.6839    -0.2736 C.ar    
   2 C2            -0.0330     0.3646    -0.7416 C.ar    
   3 C3             1.1539    -0.2925    -1.0286 C.ar    
   4 C4             2.3641     0.3441    -0.8577 C.ar    
   5 C5             2.3924     1.6622    -0.3872 C.ar    
   6 C6             1.1978     2.3186    -0.0955 C.ar    
   7 O7             4.8450     0.2652    -0.1074 O.3     
   8 C8             4.8241     1.6406    -0.1404 C.2     
   9 C9             3.6788     2.3524    -0.2011 C.2     
  10 C10            5.7881    -0.3153     0.8022 C.3     
  11 C11            7.2393     0.0839     0.4977 C.3     
  12 N12            7.2813     1.5292     0.2850 N.pl3   
  13 C13            6.1639     2.2771    -0.1032 C.2     
  14 N14            6.5085     3.4793    -0.4082 N.2     
  15 C15            9.6406     1.9318    -0.1948 C.ar    
  16 C16           10.4175     2.7411    -1.0027 C.ar    
  17 C17           11.5743     2.2435    -1.5721 C.ar    
  18 C18           11.9550     0.9339    -1.3331 C.ar    
  19 C19           11.1761     0.1243    -0.5237 C.ar    
  20 C20           10.0197     0.6241     0.0445 C.ar    
  21 F21           13.0854     0.4462    -1.8895 F       
  22 N22           -1.2562    -0.2975    -0.9208 N.pl3   
  23 C23           -1.6579    -0.9778    -2.0410 C.2     
  24 C24           -2.8911    -1.4553    -1.7861 C.2     
  25 N25           -3.2374    -1.0798    -0.5460 N.2     
  26 C26           -2.2639    -0.3907    -0.0152 C.2     
  27 C27            5.4082    -0.1122     2.2697 C.3     
  28 S28            4.2842    -1.5330     2.1715 S.o     
  29 C29            5.6083    -1.8257     0.9662 C.3     
  30 O30            4.4797    -2.3707     3.3026 O.2     
  31 C31           -3.7359    -2.2706    -2.7309 C.3     
  32 C32            8.3827     2.4775     0.4304 C.3     
  33 O33            7.9166     3.6377    -0.2914 O.3     
  34 C34            8.6133     2.8154     1.9047 C.3     
  35 C35            0.9037     3.7085     0.4344 C.3     
  36 C36           -0.5728     3.5760     0.8771 C.3     
  37 O37           -1.0567     2.5061     0.0472 O.3     
  38 H38            1.1298    -1.3106    -1.3884 H       
  39 H39            3.2856    -0.1711    -1.0852 H       
  40 H40            3.7064     3.4285    -0.1131 H       
  41 H41            7.8782    -0.1825     1.3397 H       
  42 H42            7.5811    -0.4299    -0.4008 H       
  43 H43           10.1201     3.7624    -1.1893 H       
  44 H44           12.1809     2.8757    -2.2035 H       
  45 H45           11.4721    -0.8973    -0.3366 H       
  46 H46            9.4120    -0.0072     0.6759 H       
  47 H47           -1.0939    -1.1059    -2.9530 H       
  48 H48           -2.2633     0.0398     0.9753 H       
  49 H49            6.2415    -0.2715     2.9541 H       
  50 H50            4.8923     0.8305     2.4523 H       
  51 H51            5.2600    -2.3169     0.0577 H       
  52 H52            6.4804    -2.3166     1.3983 H       
  53 H53           -3.5276    -3.3301    -2.5823 H       
  54 H54           -4.7905    -2.0766    -2.5349 H       
  55 H55           -3.5007    -1.9947    -3.7588 H       
  56 H56            8.8574     1.9051     2.4523 H       
  57 H57            9.4378     3.5231     1.9906 H       
  58 H58            7.7090     3.2587     2.3217 H       
  59 H59            1.5451     3.9455     1.2833 H       
  60 H60            1.0091     4.4556    -0.3522 H       
  61 H61           -0.6375     3.3072     1.9314 H       
  62 H62           -1.1201     4.4973     0.6778 H       
@<TRIPOS>BOND
   1    1    2 ar
   2    1    6 ar
   3    1   37 1
   4    2    3 ar
   5    2   22 1
   6    3    4 ar
   7    3   38 1
   8    4    5 ar
   9    4   39 1
  10    5    6 ar
  11    5    9 1
  12    6   35 1
  13    7    8 1
  14    7   10 1
  15    8    9 2
  16    8   13 1
  17    9   40 1
  18   10   11 1
  19   10   27 1
  20   10   29 1
  21   11   12 1
  22   11   41 1
  23   11   42 1
  24   12   13 1
  25   12   32 1
  26   13   14 2
  27   14   33 1
  28   15   16 ar
  29   15   20 ar
  30   15   32 1
  31   16   17 ar
  32   16   43 1
  33   17   18 ar
  34   17   44 1
  35   18   19 ar
  36   18   21 1
  37   19   20 ar
  38   19   45 1
  39   20   46 1
  40   22   23 1
  41   22   26 1
  42   23   24 2
  43   23   47 1
  44   24   25 1
  45   24   31 1
  46   25   26 2
  47   26   48 1
  48   27   28 1
  49   27   49 1
  50   27   50 1
  51   28   29 1
  52   28   30 2
  53   29   51 1
  54   29   52 1
  55   31   53 1
  56   31   54 1
  57   31   55 1
  58   32   33 1
  59   32   34 1
  60   34   56 1
  61   34   57 1
  62   34   58 1
  63   35   36 1
  64   35   59 1
  65   35   60 1
  66   36   37 1
  67   36   61 1
  68   36   62 1

#	End of record

