#	Name: ASD05060103
#	Creating user name:	WinNT
#	Creation time:	15. 06. 2019 20:56

#	Modifying user name:	WinNT
#	Modification time:	15. 06. 2019 20:56

#	Program:	/corina/corina34_cracker 3.40 0067  02.08.2006

@<TRIPOS>MOLECULE
ASD05060103
  52   54    0    0    0
SMALL
NO_CHARGES


@<TRIPOS>ATOM
   1 C1            -0.0168     1.3901     0.0097 C.ar    
   2 C2             0.0021    -0.0041     0.0020 C.ar    
   3 C3             1.1974    -0.6668    -0.0130 C.ar    
   4 C4             2.3932     0.0378    -0.0201 C.ar    
   5 C5             2.3965     1.4153    -0.0123 C.ar    
   6 C6            -1.0898     2.3972     0.0194 C.2     
   7 C7             1.1904     2.1094     0.0020 C.ar    
   8 N8             0.8712     3.4497     0.0118 N.pl3   
   9 C9            -0.4855     3.6099     0.0231 C.2     
  10 C10           -1.2021     4.9357     0.0322 C.3     
  11 O11           -0.5869     5.8030     0.9868 O.3     
  12 C12           -1.4832     6.7464     1.5773 C.3     
  13 C13           -1.1225     5.5591    -1.3375 C.2     
  14 C14           -2.6045     5.9996     2.3025 C.3     
  15 C15           -0.7206     7.6175     2.5775 C.3     
  16 C16           -2.0843     7.6321     0.4841 C.3     
  17 O17           -1.7264     4.9677    -2.3802 O.3     
  18 O18           -0.5151     6.5913    -1.4971 O.2     
  19 C19           -2.5492     2.1355     0.0239 C.ar    
  20 C20           -3.1426     1.5049     1.1166 C.ar    
  21 C21           -4.5006     1.2633     1.1177 C.ar    
  22 C22           -5.2763     1.6474     0.0326 C.ar    
  23 C23           -4.6887     2.2754    -1.0569 C.ar    
  24 C24           -3.3321     2.5247    -1.0621 C.ar    
  25 C25            1.8452     4.5440     0.0091 C.3     
  26 O26           -6.6142     1.4075     0.0367 O.3     
  27 C27           -7.3523     1.8289    -1.1121 C.3     
  28 H28           -0.9247    -0.5585     0.0083 H       
  29 H29            1.2115    -1.7467    -0.0189 H       
  30 H30            3.3302    -0.4991    -0.0316 H       
  31 H31            3.3321     1.9549    -0.0173 H       
  32 H32           -2.2471     4.7820     0.3013 H       
  33 H33           -2.1763     5.3687     3.0814 H       
  34 H34           -3.2882     6.7192     2.7529 H       
  35 H35           -3.1479     5.3790     1.5900 H       
  36 H36            0.0782     8.1495     2.0608 H       
  37 H37           -1.4043     8.3371     3.0279 H       
  38 H38           -0.2924     6.9865     3.3563 H       
  39 H39           -2.6277     7.0115    -0.2285 H       
  40 H40           -2.7680     8.3517     0.9345 H       
  41 H41           -1.2855     8.1641    -0.0326 H       
  42 H42           -1.6475     5.4050    -3.2391 H       
  43 H43           -2.5395     1.2055     1.9610 H       
  44 H44           -4.9608     0.7745     1.9637 H       
  45 H45           -5.2950     2.5730    -1.8996 H       
  46 H46           -2.8761     3.0171    -1.9083 H       
  47 H47            2.0775     4.8211    -1.0192 H       
  48 H48            1.4267     5.4043     0.5314 H       
  49 H49            2.7562     4.2209     0.5129 H       
  50 H50           -6.9668     1.3231    -1.9973 H       
  51 H51           -8.4048     1.5781    -0.9798 H       
  52 H52           -7.2484     2.9069    -1.2354 H       
@<TRIPOS>BOND
   1    1    2 ar
   2    1    7 ar
   3    1    6 1
   4    2    3 ar
   5    2   28 1
   6    3    4 ar
   7    3   29 1
   8    4    5 ar
   9    4   30 1
  10    5    7 ar
  11    5   31 1
  12    6    9 2
  13    6   19 1
  14    7    8 1
  15    8    9 1
  16    8   25 1
  17    9   10 1
  18   10   11 1
  19   10   13 1
  20   10   32 1
  21   11   12 1
  22   12   14 1
  23   12   15 1
  24   12   16 1
  25   13   17 1
  26   13   18 2
  27   14   33 1
  28   14   34 1
  29   14   35 1
  30   15   36 1
  31   15   37 1
  32   15   38 1
  33   16   39 1
  34   16   40 1
  35   16   41 1
  36   17   42 1
  37   19   20 ar
  38   19   24 ar
  39   20   21 ar
  40   20   43 1
  41   21   22 ar
  42   21   44 1
  43   22   23 ar
  44   22   26 1
  45   23   24 ar
  46   23   45 1
  47   24   46 1
  48   25   47 1
  49   25   48 1
  50   25   49 1
  51   26   27 1
  52   27   50 1
  53   27   51 1
  54   27   52 1

#	End of record

