#	Name: ASD01917750
#	Creating user name:	WinNT
#	Creation time:	15. 06. 2019 20:09

#	Modifying user name:	WinNT
#	Modification time:	15. 06. 2019 20:09

#	Program:	/corina/corina34_cracker 3.40 0067  02.08.2006

@<TRIPOS>MOLECULE
ASD01917750
  31   33    0    0    0
SMALL
NO_CHARGES


@<TRIPOS>ATOM
   1 C1            -0.0165     1.3682     0.0096 C.2     
   2 C2             0.0021    -0.0041     0.0020 C.2     
   3 C3            -1.3075    -0.7746     0.0118 C.3     
   4 C4            -2.3563     0.0470     0.7582 C.3     
   5 N5            -2.3977     1.4368     0.3216 N.am    
   6 C6            -1.2721     2.1286     0.0202 C.2     
   7 O7            -1.3005     3.3207    -0.2220 O.2     
   8 S8             1.6342     1.9488    -0.0031 S.3     
   9 C9             2.2070     0.3364    -0.0181 C.2     
  10 N10            1.2149    -0.4958    -0.0130 N.2     
  11 C11            3.6610    -0.0593    -0.0356 C.3     
  12 C12            4.1200    -0.1798    -1.4291 C.1     
  13 C13            4.4860    -0.2759    -2.5404 C.1     
  14 C14            4.9325    -0.3932    -3.8960 C.ar    
  15 C15            6.2528    -0.7517    -4.1702 C.ar    
  16 C16            6.6765    -0.8634    -5.4785 C.ar    
  17 C17            5.7955    -0.6209    -6.5172 C.ar    
  18 C18            4.4853    -0.2646    -6.2520 C.ar    
  19 C19            4.0475    -0.1550    -4.9482 C.ar    
  20 H20           -1.6385    -0.9456    -1.0126 H       
  21 H21           -1.1653    -1.7304     0.5162 H       
  22 H22           -3.3361    -0.4021     0.5959 H       
  23 H23           -2.1313     0.0197     1.8244 H       
  24 H24           -3.2570     1.8794     0.2412 H       
  25 H25            4.2507     0.7010     0.4766 H       
  26 H26            3.7832    -1.0165     0.4712 H       
  27 H27            6.9416    -0.9410    -3.3602 H       
  28 H28            7.6983    -1.1405    -5.6922 H       
  29 H29            6.1322    -0.7097    -7.5396 H       
  30 H30            3.8027    -0.0759    -7.0673 H       
  31 H31            3.0244     0.1232    -4.7424 H       
@<TRIPOS>BOND
   1    1    2 2
   2    1    8 1
   3    1    6 1
   4    2    3 1
   5    2   10 1
   6    3    4 1
   7    3   20 1
   8    3   21 1
   9    4    5 1
  10    4   22 1
  11    4   23 1
  12    5    6 am
  13    5   24 1
  14    6    7 2
  15    8    9 1
  16    9   10 2
  17    9   11 1
  18   11   12 1
  19   11   25 1
  20   11   26 1
  21   12   13 3
  22   13   14 1
  23   14   15 ar
  24   14   19 ar
  25   15   16 ar
  26   15   27 1
  27   16   17 ar
  28   16   28 1
  29   17   18 ar
  30   17   29 1
  31   18   19 ar
  32   18   30 1
  33   19   31 1

#	End of record

