#	Name: ASD01870322
#	Creating user name:	WinNT
#	Creation time:	15. 06. 2019 19:39

#	Modifying user name:	WinNT
#	Modification time:	15. 06. 2019 19:39

#	Program:	/corina/corina34_cracker 3.40 0067  02.08.2006

@<TRIPOS>MOLECULE
ASD01870322
  63   65    0    0    0
SMALL
NO_CHARGES


@<TRIPOS>ATOM
   1 C1             3.1787    -0.5075     0.3899 C.3     
   2 C2             2.5577    -0.0979    -0.9492 C.3     
   3 C3             2.2436    -0.0944     1.5289 C.3     
   4 C4             0.9027    -0.8162     1.3774 C.3     
   5 C5             0.2559    -0.4102     0.0494 C.3     
   6 N6             1.2076    -0.6705    -1.0392 N.am    
   7 C7             0.8489    -1.4199    -2.1004 C.2     
   8 N8            -0.3515    -2.0325    -2.1179 N.am    
   9 C9            -0.6968    -2.9360    -3.2181 C.3     
  10 C10           -2.1042    -3.4941    -2.9972 C.3     
  11 O11            1.6081    -1.5433    -3.0421 O.2     
  12 C12           -3.7984    -4.9562    -3.9217 C.3     
  13 C13           -4.3204    -5.4694    -5.2668 C.3     
  14 C14           -3.7444    -6.1093    -2.9152 C.3     
  15 C15           -2.9263    -7.2607    -3.5214 C.3     
  16 C16           -1.6221    -6.6627    -4.0974 C.3     
  17 C17           -1.9770    -6.2683    -5.5464 C.3     
  18 C18           -3.4623    -6.6651    -5.7098 C.3     
  19 N19           -3.6637    -7.7449    -4.7135 N.am    
  20 C20           -4.3534    -8.8938    -4.8572 C.2     
  21 O21           -4.4297    -9.7657    -3.8341 O.3     
  22 O22           -4.9063    -9.1429    -5.9102 O.2     
  23 C23           -5.1892   -10.9824    -4.0601 C.3     
  24 C24           -5.1633   -11.8423    -2.7948 C.3     
  25 N25           -2.4505    -4.4001    -4.1005 N.3     
  26 C26           -1.0158    -1.2310    -0.1738 C.3     
  27 C27            3.4179    -0.6296    -2.0974 C.3     
  28 H28            3.3209    -1.5880     0.4097 H       
  29 H29            4.1415    -0.0110     0.5115 H       
  30 H30            2.5007     0.9890    -1.0084 H       
  31 H31            2.6945    -0.3626     2.4843 H       
  32 H32            2.0822     0.9830     1.4935 H       
  33 H33            1.0663    -1.8938     1.3879 H       
  34 H34            0.2454    -0.5395     2.2018 H       
  35 H35            0.0088     0.6512     0.0728 H       
  36 H36           -0.9868    -1.8752    -1.4019 H       
  37 H37           -0.6666    -2.3891    -4.1605 H       
  38 H38            0.0186    -3.7577    -3.2517 H       
  39 H39           -2.1344    -4.0410    -2.0548 H       
  40 H40           -2.8197    -2.6724    -2.9636 H       
  41 H41           -4.4641    -4.1787    -3.5470 H       
  42 H42           -5.3583    -5.7847    -5.1594 H       
  43 H43           -4.2532    -4.6761    -6.0112 H       
  44 H44           -3.2695    -5.7689    -1.9951 H       
  45 H45           -4.7559    -6.4539    -2.7002 H       
  46 H46           -2.7319    -8.0514    -2.7969 H       
  47 H47           -1.3233    -5.7832    -3.5269 H       
  48 H48           -0.8272    -7.4085    -4.0908 H       
  49 H49           -1.8529    -5.1948    -5.6889 H       
  50 H50           -1.3567    -6.8201    -6.2528 H       
  51 H51           -3.6943    -6.9821    -6.7266 H       
  52 H52           -6.2202   -10.7270    -4.3048 H       
  53 H53           -4.7468   -11.5387    -4.8865 H       
  54 H54           -4.1322   -12.0977    -2.5502 H       
  55 H55           -5.6057   -11.2860    -1.9684 H       
  56 H56           -5.7334   -12.7556    -2.9645 H       
  57 H57           -2.3671    -3.9335    -4.9912 H       
  58 H58           -1.6727    -1.1254     0.6896 H       
  59 H59           -1.5282    -0.8717    -1.0663 H       
  60 H60           -0.7526    -2.2807    -0.3039 H       
  61 H61            3.5416    -1.7073    -1.9899 H       
  62 H62            2.9298    -0.4129    -3.0476 H       
  63 H63            4.3952    -0.1475    -2.0727 H       
@<TRIPOS>BOND
   1    1    2 1
   2    1    3 1
   3    1   28 1
   4    1   29 1
   5    2   27 1
   6    2    6 1
   7    2   30 1
   8    3    4 1
   9    3   31 1
  10    3   32 1
  11    4    5 1
  12    4   33 1
  13    4   34 1
  14    5    6 1
  15    5   26 1
  16    5   35 1
  17    6    7 am
  18    7    8 am
  19    7   11 2
  20    8    9 1
  21    8   36 1
  22    9   10 1
  23    9   37 1
  24    9   38 1
  25   10   25 1
  26   10   39 1
  27   10   40 1
  28   12   13 1
  29   12   14 1
  30   12   25 1
  31   12   41 1
  32   13   18 1
  33   13   42 1
  34   13   43 1
  35   14   15 1
  36   14   44 1
  37   14   45 1
  38   15   16 1
  39   15   19 1
  40   15   46 1
  41   16   17 1
  42   16   47 1
  43   16   48 1
  44   17   18 1
  45   17   49 1
  46   17   50 1
  47   18   19 1
  48   18   51 1
  49   19   20 am
  50   20   21 1
  51   20   22 2
  52   21   23 1
  53   23   24 1
  54   23   52 1
  55   23   53 1
  56   24   54 1
  57   24   55 1
  58   24   56 1
  59   25   57 1
  60   26   58 1
  61   26   59 1
  62   26   60 1
  63   27   61 1
  64   27   62 1
  65   27   63 1

#	End of record

