#	Name: ASD03320213
#	Creating user name:	WinNT
#	Creation time:	15. 06. 2019 20:36

#	Modifying user name:	WinNT
#	Modification time:	15. 06. 2019 20:36

#	Program:	/corina/corina34_cracker 3.40 0067  02.08.2006

@<TRIPOS>MOLECULE
ASD03320213
  41   43    0    0    0
SMALL
NO_CHARGES


@<TRIPOS>ATOM
   1 C1            -0.0073     1.3430    -0.1946 C.ar    
   2 C2             0.0219    -0.0350     0.0266 C.ar    
   3 N3            -1.0907    -0.7397     0.0438 N.ar    
   4 C4            -2.2716    -0.1858    -0.1447 C.ar    
   5 C5            -2.3919     1.1846    -0.3725 C.ar    
   6 C6            -1.2406     1.9716    -0.3939 C.ar    
   7 C7             1.2458     2.1270    -0.2118 C.2     
   8 O8             1.2097     3.3266    -0.4053 O.2     
   9 N9             2.4284     1.5117    -0.0130 N.am    
  10 C10            3.6219     2.2354    -0.1262 C.ar    
  11 C11           -3.7266     1.7980    -0.5840 C.ar    
  12 C12            3.6729     3.5602     0.2867 C.ar    
  13 C13            4.8503     4.2730     0.1752 C.ar    
  14 C14            5.9819     3.6660    -0.3496 C.ar    
  15 C15            5.9316     2.3427    -0.7628 C.ar    
  16 C16            4.7566     1.6268    -0.6462 C.ar    
  17 O17            7.1408     4.3687    -0.4595 O.3     
  18 C18            8.2667     3.6812    -1.0087 C.3     
  19 F19            7.9636     3.2509    -2.3049 F       
  20 F20            9.3663     4.5451    -1.0493 F       
  21 F21            8.5725     2.5744    -0.2095 F       
  22 C22           -4.8855     1.0183    -0.5595 C.ar    
  23 N23           -6.0554     1.6021    -0.7518 N.ar    
  24 C24           -6.1372     2.9058    -0.9652 C.ar    
  25 N25           -5.0628     3.6781    -0.9958 N.ar    
  26 C26           -3.8571     3.1708    -0.8071 C.ar    
  27 O27           -7.3553     3.4655    -1.1583 O.3     
  28 C28           -7.3926     4.8760    -1.3848 C.3     
  29 H29            0.9688    -0.5295     0.1854 H       
  30 H30           -3.1583    -0.8019    -0.1228 H       
  31 H31           -1.2991     3.0359    -0.5677 H       
  32 H32            2.4527     0.5677     0.2085 H       
  33 H33            2.7918     4.0331     0.6947 H       
  34 H34            4.8900     5.3034     0.4963 H       
  35 H35            6.8129     1.8711    -1.1719 H       
  36 H36            4.7177     0.5965    -0.9678 H       
  37 H37           -4.8262    -0.0461    -0.3862 H       
  38 H38           -2.9847     3.8070    -0.8331 H       
  39 H39           -6.8152     5.1160    -2.2776 H       
  40 H40           -8.4258     5.1944    -1.5238 H       
  41 H41           -6.9654     5.3933    -0.5258 H       
@<TRIPOS>BOND
   1    1    2 ar
   2    1    7 1
   3    1    6 ar
   4    2    3 ar
   5    2   29 1
   6    3    4 ar
   7    4    5 ar
   8    4   30 1
   9    5    6 ar
  10    5   11 1
  11    6   31 1
  12    7    8 2
  13    7    9 am
  14    9   10 1
  15    9   32 1
  16   10   12 ar
  17   10   16 ar
  18   11   22 ar
  19   11   26 ar
  20   12   13 ar
  21   12   33 1
  22   13   14 ar
  23   13   34 1
  24   14   15 ar
  25   14   17 1
  26   15   16 ar
  27   15   35 1
  28   16   36 1
  29   17   18 1
  30   18   19 1
  31   18   20 1
  32   18   21 1
  33   22   23 ar
  34   22   37 1
  35   23   24 ar
  36   24   25 ar
  37   24   27 1
  38   25   26 ar
  39   26   38 1
  40   27   28 1
  41   28   39 1
  42   28   40 1
  43   28   41 1

#	End of record

