#	Name: ASD01948307
#	Creating user name:	WinNT
#	Creation time:	15. 06. 2019 20:14

#	Modifying user name:	WinNT
#	Modification time:	15. 06. 2019 20:14

#	Program:	/corina/corina34_cracker 3.40 0067  02.08.2006

@<TRIPOS>MOLECULE
ASD01948307
  48   50    0    0    0
SMALL
NO_CHARGES


@<TRIPOS>ATOM
   1 C1             0.6373     1.5469    -0.7173 C.2     
   2 N2             1.1105     0.3163    -1.0727 N.am    
   3 C3             2.4292     0.0485    -1.0600 C.2     
   4 C4             2.8791     2.2877    -0.3173 C.2     
   5 C5             1.4857     2.5334    -0.3420 C.2     
   6 C6             3.1807     4.5702    -1.8945 C.ar    
   7 C7             3.8641     4.4576    -0.6901 C.ar    
   8 N8             3.7641     3.2859     0.0649 N.pl3   
   9 C9             3.2819     5.7290    -2.6383 C.ar    
  10 C10            4.0629     6.7776    -2.1854 C.ar    
  11 C11            4.7445     6.6686    -0.9868 C.ar    
  12 C12            4.6473     5.5120    -0.2381 C.ar    
  13 N13            0.9852     3.7940     0.0214 N.am    
  14 S14           -0.6226     4.1359    -0.1801 S.o2    
  15 N15           -0.8848     4.3198    -1.8048 N.am    
  16 O16            2.8280    -1.0611    -1.3821 O.2     
  17 C17            0.2110    -0.6809    -1.4551 C.2     
  18 C18            5.3899     5.3943     1.0680 C.3     
  19 I19            4.2138     8.5336    -3.3179 I       
  20 C20           -1.4271     3.2081    -2.5897 C.3     
  21 C21           -0.5745     5.5943    -2.4572 C.3     
  22 O22           -1.3331     2.9693     0.2115 O.2     
  23 O23           -0.8383     5.4114     0.4081 O.2     
  24 C24            3.3457     1.0350    -0.6802 C.2     
  25 C25            0.5376    -1.9085    -1.9301 C.2     
  26 C26           -0.6652    -2.5930    -2.1904 C.2     
  27 C27           -1.6811    -1.7667    -1.8680 C.2     
  28 N28           -1.1515    -0.5924    -1.4106 N.pl3   
  29 F29            4.6701     0.7687    -0.6667 F       
  30 H30           -0.4256     1.7370    -0.7400 H       
  31 H31            2.5745     3.7504    -2.2507 H       
  32 H32            4.3133     3.1704     0.8560 H       
  33 H33            2.7512     5.8170    -3.5748 H       
  34 H34            5.3535     7.4886    -0.6361 H       
  35 H35            1.5811     4.4645     0.3904 H       
  36 H36            4.7576     5.7553     1.8792 H       
  37 H37            5.6487     4.3506     1.2460 H       
  38 H38            6.3004     5.9919     1.0234 H       
  39 H39           -2.5157     3.2626    -2.5930 H       
  40 H40           -1.0570     3.2712    -3.6130 H       
  41 H41           -1.1120     2.2631    -2.1471 H       
  42 H42           -0.1006     6.2640    -1.7395 H       
  43 H43            0.1029     5.4192    -3.2930 H       
  44 H44           -1.4950     6.0480    -2.8245 H       
  45 H45            1.5363    -2.2907    -2.0813 H       
  46 H46           -0.7573    -3.5969    -2.5776 H       
  47 H47           -2.7333    -1.9952    -1.9528 H       
  48 H48           -1.6588     0.1779    -1.1102 H       
@<TRIPOS>BOND
   1    1    2 1
   2    1    5 2
   3    1   30 1
   4    2    3 am
   5    2   17 1
   6    3   24 1
   7    3   16 2
   8    4    5 1
   9    4    8 1
  10    4   24 2
  11    5   13 1
  12    6    7 ar
  13    6    9 ar
  14    6   31 1
  15    7    8 1
  16    7   12 ar
  17    8   32 1
  18    9   10 ar
  19    9   33 1
  20   10   11 ar
  21   10   19 1
  22   11   12 ar
  23   11   34 1
  24   12   18 1
  25   13   14 am
  26   13   35 1
  27   14   15 am
  28   14   22 2
  29   14   23 2
  30   15   20 1
  31   15   21 1
  32   17   25 2
  33   17   28 1
  34   18   36 1
  35   18   37 1
  36   18   38 1
  37   20   39 1
  38   20   40 1
  39   20   41 1
  40   21   42 1
  41   21   43 1
  42   21   44 1
  43   24   29 1
  44   25   26 1
  45   25   45 1
  46   26   27 2
  47   26   46 1
  48   27   28 1
  49   27   47 1
  50   28   48 1

#	End of record

