#	Name: ASD01884181
#	Creating user name:	WinNT
#	Creation time:	15. 06. 2019 19:47

#	Modifying user name:	WinNT
#	Modification time:	15. 06. 2019 19:47

#	Program:	/corina/corina34_cracker 3.40 0067  02.08.2006

@<TRIPOS>MOLECULE
ASD01884181
  50   54    0    0    0
SMALL
NO_CHARGES


@<TRIPOS>ATOM
   1 C1            -0.0180     1.4789     0.0102 C.ar    
   2 C2             0.0021    -0.0041     0.0020 C.ar    
   3 C3             1.2148    -0.6837     0.0920 C.ar    
   4 C4             1.2297    -2.0625     0.0846 C.ar    
   5 C5             0.0145    -2.7611    -0.0142 C.ar    
   6 C6            -1.1556    -2.0001    -0.1003 C.ar    
   7 N7            -1.1358    -0.6818    -0.0855 N.ar    
   8 N8            -0.1850    -4.1281    -0.0377 N.am    
   9 C9            -1.4350    -4.5906    -0.1373 C.2     
  10 S10           -2.4839    -3.1653    -0.2102 S.3     
  11 C11            0.9497    -5.0510     0.0443 C.3     
  12 C12            1.2339    -5.3809     1.5110 C.3     
  13 C13            2.3128    -6.4255     1.8040 C.3     
  14 O14           -1.7825    -5.7565    -0.1715 O.2     
  15 C15            2.5841    -4.9460     2.0842 C.3     
  16 C16            1.1777     2.1947     0.0026 C.ar    
  17 C17            1.1529     3.5747     0.0098 C.ar    
  18 C18           -0.0556     4.2472     0.0244 C.ar    
  19 C19           -1.2457     3.5418     0.0320 C.ar    
  20 C20           -1.2331     2.1621     0.0196 C.ar    
  21 C21           -2.5584     4.2818     0.0480 C.3     
  22 C22           -2.6311     5.1500     1.3007 C.3     
  23 C23           -2.6670     5.1405    -1.2086 C.3     
  24 C24           -4.0863     5.6975    -1.3405 C.3     
  25 C25           -4.0461     5.7081     1.4690 C.3     
  26 S26           -4.4228     6.7980     0.0652 S.o2    
  27 O27           -3.4784     7.8597     0.0477 O.2     
  28 O28           -5.8111     7.1003     0.0839 O.2     
  29 H29            2.1405    -0.1324     0.1670 H       
  30 H30            2.1644    -2.5991     0.1535 H       
  31 H31            0.7119    -5.9680    -0.4949 H       
  32 H32            1.8294    -4.5857    -0.4005 H       
  33 H33            0.3707    -5.3488     2.1758 H       
  34 H34            2.1596    -7.0803     2.6618 H       
  35 H35            2.8201    -6.8776     0.9518 H       
  36 H36            3.2700    -4.4249     1.4163 H       
  37 H37            2.6095    -4.6276     3.1263 H       
  38 H38            2.1219     1.6705    -0.0085 H       
  39 H39            2.0789     4.1304     0.0043 H       
  40 H40           -0.0702     5.3271     0.0304 H       
  41 H41           -2.1627     1.6124     0.0256 H       
  42 H42           -3.3765     3.5617     0.0620 H       
  43 H43           -2.3732     4.5491     2.1728 H       
  44 H44           -1.9250     5.9754     1.2104 H       
  45 H45           -1.9587     5.9665    -1.1447 H       
  46 H46           -2.4340     4.5331    -2.0832 H       
  47 H47           -4.1731     6.2579    -2.2714 H       
  48 H48           -4.8022     4.8756    -1.3398 H       
  49 H49           -4.7617     4.8863     1.4949 H       
  50 H50           -4.1064     6.2755     2.3977 H       
@<TRIPOS>BOND
   1    1    2 1
   2    1   16 ar
   3    1   20 ar
   4    2    3 ar
   5    2    7 ar
   6    3    4 ar
   7    3   29 1
   8    4    5 ar
   9    4   30 1
  10    5    6 ar
  11    5    8 1
  12    6    7 ar
  13    6   10 1
  14    8    9 am
  15    8   11 1
  16    9   10 1
  17    9   14 2
  18   11   12 1
  19   11   31 1
  20   11   32 1
  21   12   13 1
  22   12   15 1
  23   12   33 1
  24   13   15 1
  25   13   34 1
  26   13   35 1
  27   15   36 1
  28   15   37 1
  29   16   17 ar
  30   16   38 1
  31   17   18 ar
  32   17   39 1
  33   18   19 ar
  34   18   40 1
  35   19   20 ar
  36   19   21 1
  37   20   41 1
  38   21   22 1
  39   21   23 1
  40   21   42 1
  41   22   25 1
  42   22   43 1
  43   22   44 1
  44   23   24 1
  45   23   45 1
  46   23   46 1
  47   24   26 1
  48   24   47 1
  49   24   48 1
  50   25   26 1
  51   25   49 1
  52   25   50 1
  53   26   27 2
  54   26   28 2

#	End of record

