#	Name: ASD01470019
#	Creating user name:	WinNT
#	Creation time:	15. 06. 2019 19:21

#	Modifying user name:	WinNT
#	Modification time:	15. 06. 2019 19:21

#	Program:	/corina/corina34_cracker 3.40 0067  02.08.2006

@<TRIPOS>MOLECULE
ASD01470019
  77   82    0    0    0
SMALL
NO_CHARGES


@<TRIPOS>ATOM
   1 N1            -1.6837     1.4074     0.5940 N.am    
   2 C2            -0.3502     0.9625     0.1983 C.3     
   3 C3             0.1932    -0.0759     1.1899 C.3     
   4 C4            -0.2707    -1.4835     0.8487 C.3     
   5 C5            -1.6403    -1.4747     0.1901 C.3     
   6 N6            -2.6075    -0.7441     1.0102 N.am    
   7 C7            -2.6422     0.5999     1.0191 C.2     
   8 O8            -3.6526     1.1218     1.4491 O.2     
   9 C9            -3.5537    -1.4911     1.8425 C.3     
  10 C10           -1.9774     2.8408     0.5214 C.3     
  11 C11           -1.7128     3.4763     1.8620 C.ar    
  12 C12           -2.9958    -1.6310     3.2354 C.ar    
  13 C13           -3.1408    -0.6084     4.1274 C.ar    
  14 C14           -2.6227    -0.7396     5.4207 C.ar    
  15 C15           -1.9574    -1.9251     5.7878 C.ar    
  16 C16           -1.8251    -2.9519     4.8560 C.ar    
  17 C17           -2.3435    -2.8023     3.6012 C.ar    
  18 C18           -0.4325     3.8784     2.1949 C.ar    
  19 C19           -0.1854     4.4625     3.4240 C.ar    
  20 C20           -1.2173     4.6460     4.3229 C.ar    
  21 C21           -2.5050     4.2432     3.9916 C.ar    
  22 C22           -2.7506     3.6617     2.7544 C.ar    
  23 C23           -2.5966     0.1259     6.5954 C.2     
  24 N24           -1.9724    -0.5108     7.5448 N.2     
  25 N25           -1.5649    -1.7698     7.0915 N.pl3   
  26 C26           -0.4204     0.3385    -1.1969 C.3     
  27 O27            1.6215    -0.0389     1.1648 O.3     
  28 C28            0.4400     1.1322    -2.1460 C.ar    
  29 C29            1.7424     0.7391    -2.3916 C.ar    
  30 C30            2.5316     1.4671    -3.2622 C.ar    
  31 C31            2.0184     2.5880    -3.8875 C.ar    
  32 C32            0.7158     2.9806    -3.6427 C.ar    
  33 C33           -0.0748     2.2501    -2.7754 C.ar    
  34 C34           -2.1211    -2.9158     0.0079 C.3     
  35 O35           -0.3342    -2.2579     2.0481 O.3     
  36 C36           -1.2027    -3.6349    -0.9463 C.ar    
  37 C37           -0.0662    -4.2623    -0.4712 C.ar    
  38 C38            0.7762    -4.9219    -1.3465 C.ar    
  39 C39            0.4820    -4.9544    -2.6967 C.ar    
  40 C40           -0.6549    -4.3277    -3.1717 C.ar    
  41 C41           -1.4997    -3.6719    -2.2958 C.ar    
  42 N42           -3.5511     4.4268     4.8987 N.pl3   
  43 H43            0.3217     1.8204     0.1727 H       
  44 H44           -0.1518     0.1774     2.1924 H       
  45 H45            0.4485    -1.9406     0.1690 H       
  46 H46           -1.5656    -0.9980    -0.7872 H       
  47 H47           -4.5027    -0.9563     1.8832 H       
  48 H48           -3.7124    -2.4805     1.4136 H       
  49 H49           -1.3409     3.3043    -0.2324 H       
  50 H50           -3.0236     2.9841     0.2515 H       
  51 H51           -3.6524     0.2973     3.8366 H       
  52 H52           -1.3165    -3.8656     5.1260 H       
  53 H53           -2.2388    -3.6012     2.8821 H       
  54 H54            0.3765     3.7357     1.4938 H       
  55 H55            0.8159     4.7751     3.6811 H       
  56 H56           -1.0236     5.1019     5.2827 H       
  57 H57           -3.7504     3.3474     2.4936 H       
  58 H58           -3.0193     1.1173     6.6651 H       
  59 H59           -1.0823    -2.4277     7.6161 H       
  60 H60           -0.0607    -0.6895    -1.1537 H       
  61 H61           -1.4524     0.3480    -1.5476 H       
  62 H62            2.0419    -0.6684     1.7665 H       
  63 H63            2.1433    -0.1367    -1.9030 H       
  64 H64            3.5493     1.1604    -3.4535 H       
  65 H65            2.6352     3.1573    -4.5671 H       
  66 H66            0.3149     3.8566    -4.1310 H       
  67 H67           -1.0926     2.5568    -2.5841 H       
  68 H68           -2.1152    -3.4253     0.9715 H       
  69 H69           -3.1338    -2.9127    -0.3952 H       
  70 H70            0.5113    -2.3365     2.5107 H       
  71 H71            0.1636    -4.2369     0.5838 H       
  72 H72            1.6645    -5.4115    -0.9754 H       
  73 H73            1.1406    -5.4691    -3.3807 H       
  74 H74           -0.8846    -4.3529    -4.2267 H       
  75 H75           -2.3879    -3.1823    -2.6669 H       
  76 H76           -3.3944     4.9012     5.7302 H       
  77 H77           -4.4343     4.0801     4.6972 H       
@<TRIPOS>BOND
   1    1    2 1
   2    1   10 1
   3    1    7 am
   4    2    3 1
   5    2   26 1
   6    2   43 1
   7    3    4 1
   8    3   27 1
   9    3   44 1
  10    4    5 1
  11    4   35 1
  12    4   45 1
  13    5    6 1
  14    5   34 1
  15    5   46 1
  16    6    7 am
  17    6    9 1
  18    7    8 2
  19    9   12 1
  20    9   47 1
  21    9   48 1
  22   10   11 1
  23   10   49 1
  24   10   50 1
  25   11   18 ar
  26   11   22 ar
  27   12   13 ar
  28   12   17 ar
  29   13   14 ar
  30   13   51 1
  31   14   15 ar
  32   14   23 1
  33   15   16 ar
  34   15   25 1
  35   16   17 ar
  36   16   52 1
  37   17   53 1
  38   18   19 ar
  39   18   54 1
  40   19   20 ar
  41   19   55 1
  42   20   21 ar
  43   20   56 1
  44   21   22 ar
  45   21   42 1
  46   22   57 1
  47   23   24 2
  48   23   58 1
  49   24   25 1
  50   25   59 1
  51   26   28 1
  52   26   60 1
  53   26   61 1
  54   27   62 1
  55   28   29 ar
  56   28   33 ar
  57   29   30 ar
  58   29   63 1
  59   30   31 ar
  60   30   64 1
  61   31   32 ar
  62   31   65 1
  63   32   33 ar
  64   32   66 1
  65   33   67 1
  66   34   36 1
  67   34   68 1
  68   34   69 1
  69   35   70 1
  70   36   37 ar
  71   36   41 ar
  72   37   38 ar
  73   37   71 1
  74   38   39 ar
  75   38   72 1
  76   39   40 ar
  77   39   73 1
  78   40   41 ar
  79   40   74 1
  80   41   75 1
  81   42   76 1
  82   42   77 1

#	End of record

