#	Name: ASD06300005
#	Creating user name:	WinNT
#	Creation time:	15. 06. 2019 21:05

#	Modifying user name:	WinNT
#	Modification time:	15. 06. 2019 21:05

#	Program:	/corina/corina34_cracker 3.40 0067  02.08.2006

@<TRIPOS>MOLECULE
ASD06300005
 187  187    0    0    0
SMALL
NO_CHARGES


@<TRIPOS>ATOM
   1 N1            -7.2208    -1.3477    -0.1162 N.am    
   2 O2             7.5853    -8.9195    31.8167 O.2     
   3 C3             8.3512    -8.4588    32.6365 C.2     
   4 C4             7.8329    -7.9888    33.9712 C.3     
   5 C5             9.8571   -10.3119    30.8831 C.3     
   6 C6            10.1697    -8.8243    31.0564 C.3     
   7 C7             9.5050    -8.0396    29.9548 C.2     
   8 N8             9.6658    -8.3673    32.3539 N.am    
   9 O9             8.4610    -7.4603    30.1678 O.2     
  10 C10           10.3833   -10.7892    29.5280 C.3     
  11 C11           10.5319   -11.1085    32.0015 C.3     
  12 C12           10.1187   -12.5783    31.9017 C.3     
  13 C13            9.8377    -5.7492    27.7618 C.3     
  14 C14            9.4245    -7.2189    27.6619 C.3     
  15 C15            9.8495    -7.7706    26.3254 C.2     
  16 N16           10.0707    -7.9817    28.7328 N.am    
  17 O17           10.6166    -8.7085    26.2727 O.2     
  18 C18            9.2980    -5.1550    29.0643 C.3     
  19 C19            9.8147    -3.7238    29.2246 C.3     
  20 C20            7.7686    -5.1437    29.0244 C.3     
  21 C21            8.8938    -8.9406    23.5176 C.3     
  22 C22            9.7902    -7.7578    23.8896 C.3     
  23 C23            9.6656    -6.6835    22.8401 C.2     
  24 N24            9.3771    -7.2216    25.1888 N.am    
  25 O25            9.2705    -5.5788    23.1472 O.2     
  26 C26            9.1136   -10.0804    24.5144 C.3     
  27 C27            8.2307   -11.2454    24.1480 C.2     
  28 O28            7.5005   -11.1716    23.1882 O.2     
  29 O29            8.2554   -12.3650    24.8880 O.3     
  30 C30           10.6949    -6.2154    19.3358 C.3     
  31 C31            9.7661    -5.9434    20.5208 C.3     
  32 C32            8.3325    -6.0103    20.0610 C.2     
  33 N33            9.9931    -6.9505    21.5603 N.am    
  34 O34            7.5750    -6.8195    20.5532 O.2     
  35 C35           12.1258    -6.0084    19.7611 C.2     
  36 N36           13.1305    -6.3044    18.9130 N.am    
  37 O37           12.3731    -5.5754    20.8667 O.2     
  38 C38            5.7173    -4.1923    19.6446 C.3     
  39 C39            6.4747    -5.1602    18.7333 C.3     
  40 C40            6.3326    -4.7162    17.3002 C.2     
  41 N41            7.8923    -5.1709    19.1029 N.am    
  42 O42            7.1843    -4.0160    16.7950 O.2     
  43 C43            4.2178    -4.2877    19.3561 C.3     
  44 C44            3.7143    -5.6833    19.7302 C.3     
  45 C45            3.4717    -3.2380    20.1820 C.3     
  46 C46            1.5580    -2.8438    13.3136 C.3     
  47 C47            2.0054    -4.2862    13.0682 C.3     
  48 C48            1.8494    -4.6188    11.6067 C.2     
  49 N49            3.4105    -4.4343    13.4554 N.am    
  50 O50            2.8167    -4.9471    10.9529 O.2     
  51 C51            2.4041    -1.9083    12.4891 C.2     
  52 O52            3.3350    -2.3395    11.8507 O.2     
  53 O53            2.1237    -0.5958    12.4639 O.3     
  54 C54            5.9171    -5.8253    14.3399 C.3     
  55 C55            5.1765    -4.7639    15.1558 C.3     
  56 C56            3.7308    -4.7231    14.7323 C.2     
  57 N57            5.2590    -5.0972    16.5800 N.am    
  58 O58            2.8555    -4.9500    15.5406 O.2     
  59 C59            7.4082    -5.7816    14.6801 C.3     
  60 C60            8.1488    -6.8430    13.8642 C.3     
  61 C61            9.6399    -6.7993    14.2045 C.3     
  62 N62           10.3510    -7.8184    13.4211 N.3     
  63 C63           -2.2522    -3.6403     7.2286 C.3     
  64 C64           -2.4082    -3.9728     5.7671 C.2     
  65 N65           -1.0707    -4.3233     7.7615 N.am    
  66 O66           -1.6110    -4.7080     5.2240 O.2     
  67 C67           -4.5292    -5.1144     3.6416 C.3     
  68 C68           -3.6500    -3.8626     3.6736 C.3     
  69 C69           -4.3338    -2.7492     2.9227 C.2     
  70 N70           -3.4335    -3.4532     5.0635 N.am    
  71 O71           -4.9823    -1.9202     3.5254 O.2     
  72 C72           -4.6372    -5.6251     2.2035 C.3     
  73 C73           -3.2711    -6.1342     1.7391 C.3     
  74 C74           -5.6543    -6.7664     2.1426 C.3     
  75 C75            0.3155    -6.3865     9.4413 C.3     
  76 C76            0.4833    -4.8746     9.6053 C.3     
  77 C77           -0.7319    -4.1719     9.0572 C.2     
  78 N78            0.6350    -4.5513    11.0261 N.am    
  79 O79           -1.4051    -3.4702     9.7820 O.2     
  80 S80            1.7784    -7.2323    10.1011 S.3     
  81 C81           -4.9602    -1.6452     0.8428 C.3     
  82 C82           -6.3572    -2.1331     0.5575 C.2     
  83 N83           -4.2248    -2.6746     1.5814 N.am    
  84 O84           -6.7043    -3.2324     0.9340 O.2     
  85 C85           -1.7875    -1.5684    -0.0383 C.ar    
  86 C86           -0.5481    -1.0152     0.2235 C.ar    
  87 C87           -0.4124     0.3561     0.3330 C.ar    
  88 C88           -1.5161     1.1743     0.1802 C.ar    
  89 C89           -2.7557     0.6211    -0.0811 C.ar    
  90 C90           -2.8913    -0.7503    -0.1906 C.ar    
  91 C91           -4.2425    -1.3533    -0.4765 C.3     
  92 H92           -6.9432    -0.4684    -0.4174 H       
  93 H93           -8.1187    -1.6633    -0.3033 H       
  94 H94            7.8569    -8.8150    34.6818 H       
  95 H95            8.4591    -7.1756    34.3382 H       
  96 H96            6.8078    -7.6357    33.8590 H       
  97 H97            8.7787   -10.4643    30.9282 H       
  98 H98           11.2480    -8.6719    31.0113 H       
  99 H99           10.2784    -7.9989    33.0096 H       
 100 H100          11.4616   -10.6369    29.4829 H       
 101 H101          10.1606   -11.8490    29.4046 H       
 102 H102           9.9025   -10.2217    28.7312 H       
 103 H103          11.6144   -11.0279    31.9028 H       
 104 H104          10.2245   -10.7096    32.9682 H       
 105 H105          10.4261   -12.9773    30.9351 H       
 106 H106          10.5995   -13.1458    32.6985 H       
 107 H107           9.0362   -12.6589    32.0005 H       
 108 H108          10.9252    -5.6761    27.7522 H       
 109 H109           9.4291    -5.1985    26.9145 H       
 110 H110           8.3420    -7.2995    27.7607 H       
 111 H111          10.9057    -8.4450    28.5625 H       
 112 H112           9.6351    -5.7594    29.9064 H       
 113 H113           9.4776    -3.1194    28.3824 H       
 114 H114           9.4302    -3.3005    30.1525 H       
 115 H115          10.9043    -3.7319    29.2529 H       
 116 H116           7.4005    -6.1633    28.9103 H       
 117 H117           7.3841    -4.7204    29.9524 H       
 118 H118           7.4315    -4.5393    28.1823 H       
 119 H119           7.8498    -8.6286    23.5470 H       
 120 H120           9.1425    -9.2833    22.5132 H       
 121 H121          10.8264    -8.0912    23.9470 H       
 122 H122           8.7636    -6.4715    25.2310 H       
 123 H123          10.1576   -10.3924    24.4850 H       
 124 H124           8.8649    -9.7377    25.5188 H       
 125 H125           7.6714   -13.0854    24.6139 H       
 126 H126          10.5614    -7.2431    18.9979 H       
 127 H127          10.4553    -5.5312    18.5218 H       
 128 H128           9.9725    -4.9521    20.9241 H       
 129 H129          10.3790    -7.8094    21.3274 H       
 130 H130          12.9327    -6.6507    18.0288 H       
 131 H131          14.0515    -6.1711    19.1868 H       
 132 H132           5.9042    -4.4526    20.6864 H       
 133 H133           6.0592    -3.1743    19.4575 H       
 134 H134           6.0623    -6.1629    18.8456 H       
 135 H135           8.5140    -4.5738    18.6581 H       
 136 H136           4.0398    -4.1095    18.2956 H       
 137 H137           2.6302    -5.7191    19.6232 H       
 138 H138           4.1691    -6.4225    19.0707 H       
 139 H139           3.9850    -5.9024    20.7630 H       
 140 H140           3.8304    -2.2438    19.9154 H       
 141 H141           2.4034    -3.3060    19.9764 H       
 142 H142           3.6497    -3.4163    21.2425 H       
 143 H143           0.5118    -2.7344    13.0282 H       
 144 H144           1.6736    -2.6024    14.3702 H       
 145 H145           1.3915    -4.9631    13.6624 H       
 146 H146           4.1104    -4.3245    12.7928 H       
 147 H147           2.6945    -0.0353    11.9206 H       
 148 H148           5.5186    -6.8112    14.5793 H       
 149 H149           5.7811    -5.6268    13.2768 H       
 150 H150           5.6332    -3.7892    14.9837 H       
 151 H151           4.5409    -5.5921    17.0046 H       
 152 H152           7.8067    -4.7957    14.4407 H       
 153 H153           7.5442    -5.9801    15.7432 H       
 154 H154           7.7503    -7.8289    14.1036 H       
 155 H155           8.0128    -6.6445    12.8011 H       
 156 H156          10.0384    -5.8135    13.9651 H       
 157 H157           9.7759    -6.9979    15.2676 H       
 158 H158          11.3385    -7.8097    13.6281 H       
 159 H159           9.9570    -8.7342    13.5767 H       
 160 H160          -2.1326    -2.5631     7.3454 H       
 161 H161          -3.1379    -3.9686     7.7725 H       
 162 H162          -0.5324    -4.8846     7.1818 H       
 163 H163          -4.0845    -5.8868     4.2691 H       
 164 H164          -5.5232    -4.8699     4.0160 H       
 165 H165          -2.6902    -4.0806     3.2053 H       
 166 H166          -4.0282    -2.8082     5.4774 H       
 167 H167          -4.9627    -4.8133     1.5530 H       
 168 H168          -2.5333    -5.3382     1.8399 H       
 169 H169          -2.9732    -6.9853     2.3514 H       
 170 H170          -3.3336    -6.4416     0.6952 H       
 171 H171          -6.6275    -6.4038     2.4734 H       
 172 H172          -5.7313    -7.1303     1.1180 H       
 173 H173          -5.3288    -7.5783     2.7930 H       
 174 H174          -0.5702    -6.7149     9.9852 H       
 175 H175           0.2027    -6.6270     8.3842 H       
 176 H176           1.3690    -4.5462     9.0614 H       
 177 H177          -0.1387    -4.2887    11.5490 H       
 178 H178           1.4963    -8.5309     9.8937 H       
 179 H179          -5.0083    -0.7343     1.4395 H       
 180 H180          -3.6593    -3.3026     1.1052 H       
 181 H181          -1.8927    -2.6395    -0.1283 H       
 182 H182           0.3143    -1.6544     0.3429 H       
 183 H183           0.5559     0.7883     0.5383 H       
 184 H184          -1.4102     2.2456     0.2665 H       
 185 H185          -3.6180     1.2602    -0.2001 H       
 186 H186          -4.1156    -2.2812    -1.0341 H       
 187 H187          -4.8354    -0.6536    -1.0656 H       
@<TRIPOS>BOND
   1    1   82 am
   2    1   92 1
   3    1   93 1
   4    2    3 2
   5    3    4 1
   6    3    8 am
   7    4   94 1
   8    4   95 1
   9    4   96 1
  10    5    6 1
  11    5   10 1
  12    5   11 1
  13    5   97 1
  14    6    8 1
  15    6    7 1
  16    6   98 1
  17    7    9 2
  18    7   16 am
  19    8   99 1
  20   10  100 1
  21   10  101 1
  22   10  102 1
  23   11   12 1
  24   11  103 1
  25   11  104 1
  26   12  105 1
  27   12  106 1
  28   12  107 1
  29   13   18 1
  30   13   14 1
  31   13  108 1
  32   13  109 1
  33   14   16 1
  34   14   15 1
  35   14  110 1
  36   15   17 2
  37   15   24 am
  38   16  111 1
  39   18   19 1
  40   18   20 1
  41   18  112 1
  42   19  113 1
  43   19  114 1
  44   19  115 1
  45   20  116 1
  46   20  117 1
  47   20  118 1
  48   21   26 1
  49   21   22 1
  50   21  119 1
  51   21  120 1
  52   22   24 1
  53   22   23 1
  54   22  121 1
  55   23   25 2
  56   23   33 am
  57   24  122 1
  58   26   27 1
  59   26  123 1
  60   26  124 1
  61   27   28 2
  62   27   29 1
  63   29  125 1
  64   30   35 1
  65   30   31 1
  66   30  126 1
  67   30  127 1
  68   31   33 1
  69   31   32 1
  70   31  128 1
  71   32   34 2
  72   32   41 am
  73   33  129 1
  74   35   36 am
  75   35   37 2
  76   36  130 1
  77   36  131 1
  78   38   43 1
  79   38   39 1
  80   38  132 1
  81   38  133 1
  82   39   41 1
  83   39   40 1
  84   39  134 1
  85   40   42 2
  86   40   57 am
  87   41  135 1
  88   43   44 1
  89   43   45 1
  90   43  136 1
  91   44  137 1
  92   44  138 1
  93   44  139 1
  94   45  140 1
  95   45  141 1
  96   45  142 1
  97   46   51 1
  98   46   47 1
  99   46  143 1
 100   46  144 1
 101   47   48 1
 102   47   49 1
 103   47  145 1
 104   48   50 2
 105   48   78 am
 106   49   56 am
 107   49  146 1
 108   51   52 2
 109   51   53 1
 110   53  147 1
 111   54   59 1
 112   54   55 1
 113   54  148 1
 114   54  149 1
 115   55   57 1
 116   55   56 1
 117   55  150 1
 118   56   58 2
 119   57  151 1
 120   59   60 1
 121   59  152 1
 122   59  153 1
 123   60   61 1
 124   60  154 1
 125   60  155 1
 126   61   62 1
 127   61  156 1
 128   61  157 1
 129   62  158 1
 130   62  159 1
 131   63   64 1
 132   63   65 1
 133   63  160 1
 134   63  161 1
 135   64   66 2
 136   64   70 am
 137   65   77 am
 138   65  162 1
 139   67   72 1
 140   67   68 1
 141   67  163 1
 142   67  164 1
 143   68   70 1
 144   68   69 1
 145   68  165 1
 146   69   71 2
 147   69   83 am
 148   70  166 1
 149   72   73 1
 150   72   74 1
 151   72  167 1
 152   73  168 1
 153   73  169 1
 154   73  170 1
 155   74  171 1
 156   74  172 1
 157   74  173 1
 158   75   80 1
 159   75   76 1
 160   75  174 1
 161   75  175 1
 162   76   77 1
 163   76   78 1
 164   76  176 1
 165   77   79 2
 166   78  177 1
 167   80  178 1
 168   81   82 1
 169   81   83 1
 170   81   91 1
 171   81  179 1
 172   82   84 2
 173   83  180 1
 174   85   86 ar
 175   85   90 ar
 176   85  181 1
 177   86   87 ar
 178   86  182 1
 179   87   88 ar
 180   87  183 1
 181   88   89 ar
 182   88  184 1
 183   89   90 ar
 184   89  185 1
 185   90   91 1
 186   91  186 1
 187   91  187 1

#	End of record

