#	Name: ASD00100080
#	Creating user name:	WinNT
#	Creation time:	15. 06. 2019 18:30

#	Modifying user name:	WinNT
#	Modification time:	15. 06. 2019 18:30

#	Program:	/corina/corina34_cracker 3.40 0067  02.08.2006

@<TRIPOS>MOLECULE
ASD00100080
  75   79    0    0    0
SMALL
NO_CHARGES


@<TRIPOS>ATOM
   1 C1            -0.0187     1.5258     0.0104 C.3     
   2 C2             0.0021    -0.0041     0.0020 C.3     
   3 C3             0.7421    -0.5109     1.2415 C.3     
   4 C4             2.1775     0.0187     1.2307 C.3     
   5 C5             2.1567     1.5485     1.2391 C.3     
   6 C6             1.4167     2.0553    -0.0004 C.3     
   7 C7            -0.7475     2.0250    -1.2105 C.2     
   8 O8            -1.2053     1.2350    -2.0087 O.2     
   9 N9            -0.8907     3.3494    -1.4153 N.am    
  10 C10           -1.5992     3.8347    -2.6021 C.3     
  11 C11           -2.1661     5.2282    -2.3234 C.3     
  12 C12           -2.9061     5.7350    -3.5630 C.3     
  13 C13           -1.9350     5.8062    -4.7431 C.3     
  14 C14           -1.3681     4.4127    -5.0218 C.3     
  15 C15           -0.6281     3.9058    -3.7823 C.3     
  16 C16           -2.6750     6.3130    -5.9827 C.3     
  17 C17           -1.6795     6.5028    -7.1289 C.3     
  18 N18           -2.3900     6.9895    -8.3190 N.3     
  19 C19           -1.4446     7.4079    -9.3618 C.3     
  20 C20           -2.2126     8.0418   -10.5239 C.3     
  21 C21           -3.2063     7.0230   -11.0887 C.3     
  22 C22           -4.1486     6.5672    -9.9711 C.3     
  23 C23           -3.3244     5.9760    -8.8251 C.3     
  24 O24           -5.3535     9.0149   -13.2894 O.3     
  25 C25           -4.8016     8.7355   -12.0957 C.2     
  26 C26           -4.0077     7.6606   -12.1943 C.2     
  27 C27           -4.0751     7.2292   -13.5957 C.ar    
  28 C28           -4.9457     8.1345   -14.2257 C.ar    
  29 C29           -3.4914     6.1956   -14.3261 C.ar    
  30 C30           -3.7732     6.0673   -15.6685 C.ar    
  31 C31           -4.6327     6.9607   -16.2911 C.ar    
  32 C32           -5.2165     7.9873   -15.5799 C.ar    
  33 C33            2.9174    -0.4882     2.4702 C.3     
  34 F34            2.9364    -1.8870     2.4625 F       
  35 F35            4.2299    -0.0039     2.4603 F       
  36 F36            2.2626    -0.0370     3.6212 F       
  37 H37           -0.5289     1.8773     0.9072 H       
  38 H38           -1.0205    -0.3814     0.0098 H       
  39 H39            0.5123    -0.3556    -0.8948 H       
  40 H40            0.2319    -0.1594     2.1383 H       
  41 H41            0.7568    -1.6008     1.2356 H       
  42 H42            2.6876    -0.3328     0.3339 H       
  43 H43            1.6465     1.9000     2.1359 H       
  44 H44            3.1793     1.9258     1.2314 H       
  45 H45            1.9269     1.7038    -0.8972 H       
  46 H46            1.4019     3.1452     0.0056 H       
  47 H47           -0.5245     3.9812    -0.7768 H       
  48 H48           -2.4144     3.1523    -2.8430 H       
  49 H49           -2.8579     5.1775    -1.4827 H       
  50 H50           -1.3510     5.9106    -2.0826 H       
  51 H51           -3.7213     5.0527    -3.8038 H       
  52 H52           -3.3100     6.7278    -3.3644 H       
  53 H53           -1.1198     6.4885    -4.5023 H       
  54 H54           -2.1833     3.7303    -5.2627 H       
  55 H55           -0.6763     4.4633    -5.8626 H       
  56 H56            0.1870     4.5882    -3.5415 H       
  57 H57           -0.2243     2.9131    -3.9809 H       
  58 H58           -3.4326     5.5863    -6.2760 H       
  59 H59           -3.1538     7.2656    -5.7558 H       
  60 H60           -0.9219     7.2295    -6.8355 H       
  61 H61           -1.2007     5.5503    -7.3557 H       
  62 H62           -0.7462     8.1355    -8.9482 H       
  63 H63           -0.8931     6.5394    -9.7218 H       
  64 H64           -2.7534     8.9186   -10.1675 H       
  65 H65           -1.5120     8.3381   -11.3045 H       
  66 H66           -2.6632     6.1630   -11.4805 H       
  67 H67           -4.7198     7.4207    -9.6060 H       
  68 H68           -4.8311     5.8099   -10.3568 H       
  69 H69           -2.7642     5.1142    -9.1876 H       
  70 H70           -3.9914     5.6636    -8.0216 H       
  71 H71           -4.9732     9.2962   -11.1888 H       
  72 H72           -2.8218     5.4996   -13.8427 H       
  73 H73           -3.3230     5.2682   -16.2385 H       
  74 H74           -4.8463     6.8510   -17.3440 H       
  75 H75           -5.8841     8.6766   -16.0755 H       
@<TRIPOS>BOND
   1    1    2 1
   2    1    6 1
   3    1    7 1
   4    1   37 1
   5    2    3 1
   6    2   38 1
   7    2   39 1
   8    3    4 1
   9    3   40 1
  10    3   41 1
  11    4    5 1
  12    4   33 1
  13    4   42 1
  14    5    6 1
  15    5   43 1
  16    5   44 1
  17    6   45 1
  18    6   46 1
  19    7    8 2
  20    7    9 am
  21    9   10 1
  22    9   47 1
  23   10   11 1
  24   10   15 1
  25   10   48 1
  26   11   12 1
  27   11   49 1
  28   11   50 1
  29   12   13 1
  30   12   51 1
  31   12   52 1
  32   13   14 1
  33   13   16 1
  34   13   53 1
  35   14   15 1
  36   14   54 1
  37   14   55 1
  38   15   56 1
  39   15   57 1
  40   16   17 1
  41   16   58 1
  42   16   59 1
  43   17   18 1
  44   17   60 1
  45   17   61 1
  46   18   19 1
  47   18   23 1
  48   19   20 1
  49   19   62 1
  50   19   63 1
  51   20   21 1
  52   20   64 1
  53   20   65 1
  54   21   22 1
  55   21   26 1
  56   21   66 1
  57   22   23 1
  58   22   67 1
  59   22   68 1
  60   23   69 1
  61   23   70 1
  62   24   25 1
  63   24   28 1
  64   25   26 2
  65   25   71 1
  66   26   27 1
  67   27   28 ar
  68   27   29 ar
  69   28   32 ar
  70   29   30 ar
  71   29   72 1
  72   30   31 ar
  73   30   73 1
  74   31   32 ar
  75   31   74 1
  76   32   75 1
  77   33   34 1
  78   33   35 1
  79   33   36 1

#	End of record

