#	Name: ASD01209112
#	Creating user name:	WinNT
#	Creation time:	15. 06. 2019 19:11

#	Modifying user name:	WinNT
#	Modification time:	15. 06. 2019 19:11

#	Program:	/corina/corina34_cracker 3.40 0067  02.08.2006

@<TRIPOS>MOLECULE
ASD01209112
  74   76    0    0    0
SMALL
NO_CHARGES


@<TRIPOS>ATOM
   1 C1            -0.0842     1.4338     0.0277 C.ar    
   2 C2             0.0185     0.0511    -0.0130 C.ar    
   3 C3            -1.1244    -0.7352     0.0271 C.ar    
   4 C4            -2.3732    -0.1415     0.1079 C.ar    
   5 C5            -2.4810     1.2493     0.1491 C.ar    
   6 C6            -1.3289     2.0356     0.1139 C.ar    
   7 O7             1.0383     2.1990    -0.0114 O.3     
   8 C8             0.8563     3.6142    -0.0906 C.3     
   9 C9             2.0903     4.2520    -0.7317 C.3     
  10 O10           -1.0182    -2.0893    -0.0135 O.3     
  11 C11           -1.4876    -2.7333    -1.1142 C.ar    
  12 C12           -1.9388    -2.0053    -2.2058 C.ar    
  13 C13           -1.5112    -4.1202    -1.1506 C.ar    
  14 C14           -1.9889    -4.7724    -2.2707 C.ar    
  15 C15           -2.4429    -4.0445    -3.3551 C.ar    
  16 C16           -2.4155    -2.6624    -3.3234 C.ar    
  17 S17           -3.0511    -4.8796    -4.7825 S.o2    
  18 O18           -2.8373    -3.9598    -5.8443 O.2     
  19 O19           -2.3918    -6.1382    -4.7596 O.2     
  20 C20           -4.8253    -5.0845    -4.4654 C.3     
  21 C21           -3.8115     1.8873     0.2349 C.2     
  22 N22           -4.9228     1.1258     0.2735 N.am    
  23 O23           -3.9034     3.0986     0.2707 O.2     
  24 C24           -6.1661     1.7220     0.3537 C.2     
  25 S25           -6.4530     3.4651     0.4126 S.3     
  26 C26           -8.2688     3.3456     0.5041 C.3     
  27 C27           -8.5238     1.8303     0.4792 C.3     
  28 N28           -7.2835     1.0922     0.3909 N.2     
  29 C29           -9.2640     1.4251     1.7555 C.3     
  30 P30           -9.7022    -0.3423     1.6687 P.3     
  31 O31           -8.4825    -1.1412     1.4150 O.2     
  32 C32          -10.4509    -0.8610     3.2479 C.3     
  33 C33            0.6611     4.1827     1.3164 C.3     
  34 O34            3.2214     4.0635     0.1210 O.3     
  35 C35            4.4329     4.6250    -0.3878 C.3     
  36 O36          -10.7551    -0.5761     0.4733 O.3     
  37 C37          -11.2135    -1.8718     0.0821 C.3     
  38 C38          -12.7328    -1.9462     0.2461 C.3     
  39 C39          -10.8456    -2.1225    -1.3817 C.3     
  40 H40            0.9907    -0.4150    -0.0764 H       
  41 H41           -3.2622    -0.7540     0.1387 H       
  42 H42           -1.4079     3.1123     0.1455 H       
  43 H43           -0.0227     3.8341    -0.6965 H       
  44 H44            2.2812     3.7837    -1.6973 H       
  45 H45            1.9159     5.3186    -0.8733 H       
  46 H46           -1.9177    -0.9257    -2.1815 H       
  47 H47           -1.1561    -4.6893    -0.3042 H       
  48 H48           -2.0076    -5.8519    -2.2996 H       
  49 H49           -2.7710    -2.0962    -4.1716 H       
  50 H50           -5.2873    -4.1054    -4.3391 H       
  51 H51           -5.2880    -5.5986    -5.3078 H       
  52 H52           -4.9668    -5.6727    -3.5586 H       
  53 H53           -4.8495     0.1590     0.2450 H       
  54 H54           -8.6367     3.7823     1.4326 H       
  55 H55           -8.7300     3.8274    -0.3580 H       
  56 H56           -9.1434     1.5863    -0.3838 H       
  57 H57           -8.6213     1.5981     2.6187 H       
  58 H58          -10.1719     2.0202     1.8534 H       
  59 H59          -11.3492    -0.2727     3.4347 H       
  60 H60          -10.7129    -1.9178     3.1960 H       
  61 H61           -9.7381    -0.7028     4.0572 H       
  62 H62            0.5222     5.2621     1.2561 H       
  63 H63           -0.2181     3.7283     1.7732 H       
  64 H64            1.5400     3.9628     1.9223 H       
  65 H65            4.6724     4.1644    -1.3462 H       
  66 H66            4.3071     5.6993    -0.5223 H       
  67 H67            5.2435     4.4395     0.3170 H       
  68 H68          -10.7428    -2.6285     0.7098 H       
  69 H69          -13.2035    -1.1895    -0.3816 H       
  70 H70          -13.0825    -2.9346    -0.0523 H       
  71 H71          -12.9950    -1.7676     1.2889 H       
  72 H72          -11.1952    -3.1109    -1.6800 H       
  73 H73          -11.3162    -1.3659    -2.0093 H       
  74 H74           -9.7631    -2.0695    -1.4985 H       
@<TRIPOS>BOND
   1    1    2 ar
   2    1    7 1
   3    1    6 ar
   4    2    3 ar
   5    2   40 1
   6    3    4 ar
   7    3   10 1
   8    4    5 ar
   9    4   41 1
  10    5    6 ar
  11    5   21 1
  12    6   42 1
  13    7    8 1
  14    8    9 1
  15    8   33 1
  16    8   43 1
  17    9   34 1
  18    9   44 1
  19    9   45 1
  20   10   11 1
  21   11   12 ar
  22   11   13 ar
  23   12   16 ar
  24   12   46 1
  25   13   14 ar
  26   13   47 1
  27   14   15 ar
  28   14   48 1
  29   15   16 ar
  30   15   17 1
  31   16   49 1
  32   17   18 2
  33   17   19 2
  34   17   20 1
  35   20   50 1
  36   20   51 1
  37   20   52 1
  38   21   22 am
  39   21   23 2
  40   22   24 1
  41   22   53 1
  42   24   25 1
  43   24   28 2
  44   25   26 1
  45   26   27 1
  46   26   54 1
  47   26   55 1
  48   27   28 1
  49   27   29 1
  50   27   56 1
  51   29   30 1
  52   29   57 1
  53   29   58 1
  54   30   31 2
  55   30   32 1
  56   30   36 1
  57   32   59 1
  58   32   60 1
  59   32   61 1
  60   33   62 1
  61   33   63 1
  62   33   64 1
  63   34   35 1
  64   35   65 1
  65   35   66 1
  66   35   67 1
  67   36   37 1
  68   37   38 1
  69   37   39 1
  70   37   68 1
  71   38   69 1
  72   38   70 1
  73   38   71 1
  74   39   72 1
  75   39   73 1
  76   39   74 1

#	End of record

