#	Name: ASD01148249
#	Creating user name:	WinNT
#	Creation time:	15. 06. 2019 19:02

#	Modifying user name:	WinNT
#	Modification time:	15. 06. 2019 19:02

#	Program:	/corina/corina34_cracker 3.40 0067  02.08.2006

@<TRIPOS>MOLECULE
ASD01148249
  55   58    0    0    0
SMALL
NO_CHARGES


@<TRIPOS>ATOM
   1 C1            -0.1532     2.6557    -0.6697 C.ar    
   2 C2             0.3305     1.3607    -0.7432 C.ar    
   3 C3            -0.5275     0.2907    -0.5547 C.ar    
   4 C4            -1.8670     0.5167    -0.2930 C.ar    
   5 C5            -2.3489     1.8102    -0.2202 C.ar    
   6 C6            -1.4919     2.8794    -0.4021 C.ar    
   7 C7            -3.8085     2.0551     0.0640 C.3     
   8 O8            -4.3516     1.0177     0.9056 O.3     
   9 C9            -3.9974     3.3101     0.9492 C.3     
  10 C10           -4.0423     2.7235     2.3474 C.2     
  11 N11           -4.2371     1.4514     2.2465 N.2     
  12 C12           -3.8894     3.4778     3.6070 C.ar    
  13 C13           -3.9518     2.8103     4.8329 C.ar    
  14 C14           -3.6765     4.8583     3.5731 C.ar    
  15 C15           -3.5335     5.5616     4.7476 C.ar    
  16 C16           -3.6012     4.8950     5.9738 C.ar    
  17 C17           -3.8088     3.5136     6.0075 C.ar    
  18 C18           -3.4478     5.6497     7.2342 C.2     
  19 O19           -2.4431     6.3040     7.4322 O.2     
  20 N20           -4.4220     5.6126     8.1648 N.am    
  21 C21           -4.6039     2.1770    -1.2373 C.3     
  22 F22           -4.4677     0.9988    -1.9792 F       
  23 F23           -5.9546     2.3875    -0.9402 F       
  24 F24           -4.1166     3.2562    -1.9823 F       
  25 Cl25           0.0771    -1.3340    -0.6471 Cl      
  26 Cl26           2.0115     1.0786    -1.0723 Cl      
  27 Cl27           0.9213     3.9986    -0.9059 Cl      
  28 C28           -4.2139     6.2468     9.4689 C.3     
  29 C29           -4.6731     7.6808     9.4091 C.ar    
  30 N30           -3.8507     8.6104     8.9640 N.ar    
  31 C31           -5.5877     4.9920     7.8956 C.2     
  32 C32           -4.2091     9.8777     8.8940 C.ar    
  33 C33           -5.4712    10.2782     9.2891 C.ar    
  34 C34           -6.3640     9.3287     9.7629 C.ar    
  35 C35           -5.9535     8.0057     9.8162 C.ar    
  36 O36           -5.8029     4.5608     6.7806 O.2     
  37 O37           -6.5135     4.8501     8.8623 O.3     
  38 C38           -7.7453     4.1716     8.5009 C.3     
  39 H39           -2.5365    -0.3179    -0.1458 H       
  40 H40           -1.8694     3.8897    -0.3447 H       
  41 H41           -3.1524     3.9901     0.8418 H       
  42 H42           -4.9340     3.8142     0.7109 H       
  43 H43           -4.1126     1.7427     4.8589 H       
  44 H44           -3.6238     5.3735     2.6254 H       
  45 H45           -3.3686     6.6286     4.7215 H       
  46 H46           -3.8611     2.9983     6.9552 H       
  47 H47           -4.7862     5.7133    10.2278 H       
  48 H48           -3.1545     6.2148     9.7235 H       
  49 H49           -3.5079    10.6110     8.5238 H       
  50 H50           -5.7586    11.3176     9.2300 H       
  51 H51           -7.3569     9.6127    10.0790 H       
  52 H52           -6.6227     7.2397    10.1793 H       
  53 H53           -7.5175     3.1606     8.1629 H       
  54 H54           -8.4026     4.1249     9.3691 H       
  55 H55           -8.2404     4.7197     7.6993 H       
@<TRIPOS>BOND
   1    1    2 ar
   2    1   27 1
   3    1    6 ar
   4    2    3 ar
   5    2   26 1
   6    3    4 ar
   7    3   25 1
   8    4    5 ar
   9    4   39 1
  10    5    6 ar
  11    5    7 1
  12    6   40 1
  13    7    8 1
  14    7    9 1
  15    7   21 1
  16    8   11 1
  17    9   10 1
  18    9   41 1
  19    9   42 1
  20   10   11 2
  21   10   12 1
  22   12   13 ar
  23   12   14 ar
  24   13   17 ar
  25   13   43 1
  26   14   15 ar
  27   14   44 1
  28   15   16 ar
  29   15   45 1
  30   16   17 ar
  31   16   18 1
  32   17   46 1
  33   18   19 2
  34   18   20 am
  35   20   28 1
  36   20   31 am
  37   21   22 1
  38   21   23 1
  39   21   24 1
  40   28   29 1
  41   28   47 1
  42   28   48 1
  43   29   30 ar
  44   29   35 ar
  45   30   32 ar
  46   31   36 2
  47   31   37 1
  48   32   33 ar
  49   32   49 1
  50   33   34 ar
  51   33   50 1
  52   34   35 ar
  53   34   51 1
  54   35   52 1
  55   37   38 1
  56   38   53 1
  57   38   54 1
  58   38   55 1

#	End of record

