#	Name: ASD01915218
#	Creating user name:	WinNT
#	Creation time:	15. 06. 2019 20:05

#	Modifying user name:	WinNT
#	Modification time:	15. 06. 2019 20:05

#	Program:	/corina/corina34_cracker 3.40 0067  02.08.2006

@<TRIPOS>MOLECULE
ASD01915218
  30   32    0    0    0
SMALL
NO_CHARGES


@<TRIPOS>ATOM
   1 C1            -0.0169     1.3923     0.0097 C.ar    
   2 C2             0.0021    -0.0041     0.0020 C.ar    
   3 C3            -1.1847    -0.7146     0.0090 C.ar    
   4 C4            -2.3958    -0.0477     0.0241 C.ar    
   5 C5            -2.4270     1.3492     0.0324 C.ar    
   6 C6            -1.2343     2.0700     0.0308 C.ar    
   7 F7            -1.1603    -2.0653     0.0006 F       
   8 C8             1.2523     2.1501     0.0016 C.2     
   9 N9             2.4292     1.4934    -0.0131 N.am    
  10 O10            1.2346     3.3656     0.0083 O.2     
  11 C11            3.6217     2.2055    -0.0207 C.2     
  12 S12            3.7442     3.9107    -0.0121 S.3     
  13 C13            5.5020     3.7951    -0.0299 C.2     
  14 C14            5.8316     2.5021    -0.0406 C.2     
  15 N15            4.8041     1.6737    -0.0297 N.2     
  16 C16            7.2614     2.0261    -0.0581 C.3     
  17 C17            7.9549     1.9227    -1.4180 C.3     
  18 C18            8.3389     3.0405    -0.4464 C.3     
  19 C19           -3.6819     2.0387     0.0480 C.1     
  20 N20           -4.6775     2.5857     0.0605 N.1     
  21 H21            0.9452    -0.5302    -0.0098 H       
  22 H22           -3.3194    -0.6075     0.0292 H       
  23 H23           -1.2536     3.1498     0.0371 H       
  24 H24            2.4434     0.5235    -0.0185 H       
  25 H25            6.1923     4.6257    -0.0319 H       
  26 H26            7.5184     1.2820     0.6958 H       
  27 H27            8.6685     1.1108    -1.5586 H       
  28 H28            7.3770     2.1990    -2.3000 H       
  29 H29            8.0137     4.0521    -0.6892 H       
  30 H30            9.3052     2.9640     0.0522 H       
@<TRIPOS>BOND
   1    1    2 ar
   2    1    8 1
   3    1    6 ar
   4    2    3 ar
   5    2   21 1
   6    3    4 ar
   7    3    7 1
   8    4    5 ar
   9    4   22 1
  10    5    6 ar
  11    5   19 1
  12    6   23 1
  13    8    9 am
  14    8   10 2
  15    9   11 1
  16    9   24 1
  17   11   12 1
  18   11   15 2
  19   12   13 1
  20   13   14 2
  21   13   25 1
  22   14   15 1
  23   14   16 1
  24   16   17 1
  25   16   18 1
  26   16   26 1
  27   17   18 1
  28   17   27 1
  29   17   28 1
  30   18   29 1
  31   18   30 1
  32   19   20 3

#	End of record

