#	Name: ASD01814138
#	Creating user name:	WinNT
#	Creation time:	15. 06. 2019 19:31

#	Modifying user name:	WinNT
#	Modification time:	15. 06. 2019 19:31

#	Program:	/corina/corina34_cracker 3.40 0067  02.08.2006

@<TRIPOS>MOLECULE
ASD01814138
  52   54    0    0    0
SMALL
NO_CHARGES


@<TRIPOS>ATOM
   1 C1            -0.0180     1.4742     0.0101 C.ar    
   2 C2             0.0021    -0.0041     0.0020 C.2     
   3 N3            -1.1558    -0.6938     0.0094 N.am    
   4 O4             1.0628    -0.5974    -0.0113 O.2     
   5 C5            -1.1360    -2.1586     0.0013 C.3     
   6 C6            -2.5713    -2.6882     0.0122 C.3     
   7 N7            -2.5514    -4.1570     0.0041 N.3     
   8 C8            -3.9155    -4.7021     0.0142 C.3     
   9 C9            -1.7120    -7.3512     0.1644 C.2     
  10 O10           -0.9722    -8.0707    -0.7002 O.3     
  11 O11           -1.2751    -7.0914     1.2681 O.2     
  12 C12            0.3376    -8.5029    -0.2463 C.3     
  13 C13            1.0242    -9.3012    -1.3564 C.3     
  14 C14            1.1794     2.1915     0.0026 C.ar    
  15 C15            1.1536     3.5708     0.0097 C.ar    
  16 C16           -0.0555     4.2431     0.0249 C.ar    
  17 C17           -1.2460     3.5382     0.0325 C.ar    
  18 C18           -1.2344     2.1587     0.0196 C.ar    
  19 C19           -4.4522    -4.7679    -1.4186 C.3     
  20 C20           -3.6413    -5.7847    -2.2272 C.3     
  21 C21           -3.6434    -7.1286    -1.4812 C.3     
  22 N22           -2.9372    -6.9190    -0.1942 N.am    
  23 C23           -3.8986    -6.1211     0.6046 C.3     
  24 C24           -5.2699    -6.7722     0.3116 C.3     
  25 C25           -5.1010    -7.4393    -1.0696 C.3     
  26 H26           -2.0023    -0.2203     0.0200 H       
  27 H27           -0.6258    -2.5101    -0.8955 H       
  28 H28           -0.6088    -2.5197     0.8844 H       
  29 H29           -3.0815    -2.3367     0.9090 H       
  30 H30           -3.0985    -2.3271    -0.8709 H       
  31 H31           -2.0279    -4.5072    -0.7842 H       
  32 H32           -4.5601    -4.0618     0.6164 H       
  33 H33            0.9424    -7.6306     0.0012 H       
  34 H34            0.2268    -9.1310     0.6376 H       
  35 H35            0.4194   -10.1735    -1.6040 H       
  36 H36            1.1350    -8.6731    -2.2403 H       
  37 H37            2.0075    -9.6256    -1.0157 H       
  38 H38            2.1239     1.6679    -0.0085 H       
  39 H39            2.0794     4.1270     0.0039 H       
  40 H40           -0.0702     5.3230     0.0312 H       
  41 H41           -2.1865     4.0690     0.0443 H       
  42 H42           -2.1643     1.6095     0.0252 H       
  43 H43           -5.4990    -5.0712    -1.4002 H       
  44 H44           -4.3681    -3.7853    -1.8829 H       
  45 H45           -4.0929    -5.9125    -3.2110 H       
  46 H46           -2.6165    -5.4299    -2.3372 H       
  47 H47           -3.1942    -7.9265    -2.0725 H       
  48 H48           -3.6516    -6.1206     1.6663 H       
  49 H49           -5.5043    -7.5206     1.0685 H       
  50 H50           -6.0505    -6.0124     0.2732 H       
  51 H51           -5.7984    -7.0077    -1.7875 H       
  52 H52           -5.2523    -8.5160    -0.9922 H       
@<TRIPOS>BOND
   1    1    2 1
   2    1   14 ar
   3    1   18 ar
   4    2    3 am
   5    2    4 2
   6    3    5 1
   7    3   26 1
   8    5    6 1
   9    5   27 1
  10    5   28 1
  11    6    7 1
  12    6   29 1
  13    6   30 1
  14    7    8 1
  15    7   31 1
  16    8   19 1
  17    8   23 1
  18    8   32 1
  19    9   10 1
  20    9   11 2
  21    9   22 am
  22   10   12 1
  23   12   13 1
  24   12   33 1
  25   12   34 1
  26   13   35 1
  27   13   36 1
  28   13   37 1
  29   14   15 ar
  30   14   38 1
  31   15   16 ar
  32   15   39 1
  33   16   17 ar
  34   16   40 1
  35   17   18 ar
  36   17   41 1
  37   18   42 1
  38   19   20 1
  39   19   43 1
  40   19   44 1
  41   20   21 1
  42   20   45 1
  43   20   46 1
  44   21   22 1
  45   21   25 1
  46   21   47 1
  47   22   23 1
  48   23   24 1
  49   23   48 1
  50   24   25 1
  51   24   49 1
  52   24   50 1
  53   25   51 1
  54   25   52 1

#	End of record

