#	Name: ASD00841213
#	Creating user name:	WinNT
#	Creation time:	15. 06. 2019 18:41

#	Modifying user name:	WinNT
#	Modification time:	15. 06. 2019 18:41

#	Program:	/corina/corina34_cracker 3.40 0067  02.08.2006

@<TRIPOS>MOLECULE
ASD00841213
  87   92    0    0    0
SMALL
NO_CHARGES


@<TRIPOS>ATOM
   1 F1            -0.1145    -3.1353     4.7190 F       
   2 N2            -0.0159     1.3183     0.0093 N.ar    
   3 C3             0.0021    -0.0041     0.0020 C.ar    
   4 C4             1.2069    -0.6955    -0.0132 C.ar    
   5 C5             2.3925     0.0180    -0.0207 C.ar    
   6 C6             2.3308     1.4049    -0.0127 C.ar    
   7 C7             1.0980     2.0259     0.0025 C.ar    
   8 C8             1.2224    -2.2024    -0.0209 C.3     
   9 C9             0.4763    -2.7343    -1.2260 C.2     
  10 O10            2.5880    -2.6958    -0.0097 O.3     
  11 C11            3.3814    -2.3221    -1.0313 C.2     
  12 N12            4.6600    -2.7452    -1.0812 N.am    
  13 O13            2.9446    -1.6033    -1.9082 O.2     
  14 C14            5.5437    -2.3488    -2.1881 C.3     
  15 C15            6.8406    -1.7851    -1.5976 C.3     
  16 N16            7.4151    -2.7627    -0.6637 N.3     
  17 C17            6.5188    -3.0021     0.4752 C.3     
  18 C18            5.2104    -3.6107    -0.0270 C.3     
  19 N19            8.7309    -2.3404    -0.2115 N.3     
  20 C20            9.3056    -3.3183     0.7228 C.3     
  21 C21           10.7188    -2.8782     1.1124 C.3     
  22 N22           10.6625    -1.5421     1.7216 N.3     
  23 C23           10.0877    -0.5642     0.7873 C.3     
  24 C24            8.6746    -1.0042     0.3978 C.3     
  25 C25           11.9918    -1.1154     2.1785 C.3     
  26 O26            0.7563    -2.5400    -2.3901 O.2     
  27 N27           -0.5539    -3.4626    -0.7639 N.am    
  28 C28            0.4503    -2.7460     1.1592 C.ar    
  29 C29           -0.5978    -3.4898     0.6316 C.ar    
  30 C30            0.6150    -2.6254     2.5206 C.ar    
  31 C31           -0.2720    -3.2512     3.3822 C.ar    
  32 C32           -1.3212    -3.9958     2.8677 C.ar    
  33 C33           -1.4864    -4.1167     1.5022 C.ar    
  34 Cl34          -2.4334    -4.7805     3.9451 Cl      
  35 C35           -1.0184    -5.8562    -2.0403 C.ar    
  36 C36            0.1589    -6.0213    -2.7550 C.ar    
  37 C37           -1.6952    -6.9615    -1.5614 C.ar    
  38 C38           -1.1997    -8.2310    -1.7935 C.ar    
  39 C39           -0.0262    -8.3983    -2.5058 C.ar    
  40 C40            0.6539    -7.2966    -2.9871 C.ar    
  41 H41            0.3588    -9.3911    -2.6858 H       
  42 O42            0.8262    -4.9358    -3.2275 O.3     
  43 C43            2.0315    -5.1811    -3.9549 C.3     
  44 C44            2.6366    -3.8494    -4.4033 C.3     
  45 O45           -1.1673    -0.6919     0.0099 O.3     
  46 C46           -3.5777    -0.8652     0.0330 C.3     
  47 C47           -2.3720     0.0766     0.0260 C.3     
  48 S48           -1.6464    -4.2381    -1.7372 S.o2    
  49 O49           -2.8264    -4.4041    -0.9631 O.2     
  50 O50           -1.6248    -3.5590    -2.9853 O.2     
  51 H51            3.3442    -0.4925    -0.0322 H       
  52 H52            3.2375     1.9916    -0.0178 H       
  53 H53            1.0444     3.1046     0.0084 H       
  54 H54            5.7699    -3.2182    -2.8053 H       
  55 H55            5.0540    -1.5849    -2.7920 H       
  56 H56            7.5507    -1.5887    -2.4009 H       
  57 H57            6.6256    -0.8577    -1.0668 H       
  58 H58            6.9954    -3.6883     1.1753 H       
  59 H59            6.3083    -2.0578     0.9772 H       
  60 H60            4.5005    -3.6837     0.7968 H       
  61 H61            5.4017    -4.6019    -0.4381 H       
  62 H62            8.6838    -3.3768     1.6161 H       
  63 H63            9.3483    -4.2967     0.2444 H       
  64 H64           11.1361    -3.5868     1.8277 H       
  65 H65           11.3478    -2.8460     0.2227 H       
  66 H66           10.0450     0.4143     1.2658 H       
  67 H67           10.7096    -0.5057    -0.1060 H       
  68 H68            8.2572    -0.2956    -0.3176 H       
  69 H69            8.0455    -1.0364     1.2874 H       
  70 H70           12.6750    -1.0840     1.3298 H       
  71 H71           11.9215    -0.1236     2.6252 H       
  72 H72           12.3654    -1.8220     2.9196 H       
  73 H73            1.4346    -2.0442     2.9168 H       
  74 H74           -2.3064    -4.6986     1.1081 H       
  75 H75           -2.6119    -6.8335    -1.0048 H       
  76 H76           -1.7298    -9.0937    -1.4177 H       
  77 H77            1.5699    -7.4278    -3.5439 H       
  78 H78            2.7413    -5.7058    -3.3154 H       
  79 H79            1.8099    -5.7924    -4.8297 H       
  80 H80            3.5560    -4.0365    -4.9581 H       
  81 H81            1.9268    -3.3247    -5.0428 H       
  82 H82            2.8582    -3.2381    -3.5285 H       
  83 H83           -3.5566    -1.4891    -0.8606 H       
  84 H84           -3.5390    -1.4986     0.9192 H       
  85 H85           -4.4966    -0.2790     0.0452 H       
  86 H86           -2.3931     0.7004     0.9196 H       
  87 H87           -2.4108     0.7099    -0.8602 H       
@<TRIPOS>BOND
   1    1   31 1
   2    2    3 ar
   3    2    7 ar
   4    3    4 ar
   5    3   45 1
   6    4    5 ar
   7    4    8 1
   8    5    6 ar
   9    5   51 1
  10    6    7 ar
  11    6   52 1
  12    7   53 1
  13    8    9 1
  14    8   10 1
  15    8   28 1
  16    9   26 2
  17    9   27 am
  18   10   11 1
  19   11   12 am
  20   11   13 2
  21   12   14 1
  22   12   18 1
  23   14   15 1
  24   14   54 1
  25   14   55 1
  26   15   16 1
  27   15   56 1
  28   15   57 1
  29   16   17 1
  30   16   19 1
  31   17   18 1
  32   17   58 1
  33   17   59 1
  34   18   60 1
  35   18   61 1
  36   19   20 1
  37   19   24 1
  38   20   21 1
  39   20   62 1
  40   20   63 1
  41   21   22 1
  42   21   64 1
  43   21   65 1
  44   22   23 1
  45   22   25 1
  46   23   24 1
  47   23   66 1
  48   23   67 1
  49   24   68 1
  50   24   69 1
  51   25   70 1
  52   25   71 1
  53   25   72 1
  54   27   48 am
  55   27   29 1
  56   28   29 ar
  57   28   30 ar
  58   29   33 ar
  59   30   31 ar
  60   30   73 1
  61   31   32 ar
  62   32   33 ar
  63   32   34 1
  64   33   74 1
  65   35   36 ar
  66   35   37 ar
  67   35   48 1
  68   36   42 1
  69   36   40 ar
  70   37   38 ar
  71   37   75 1
  72   38   39 ar
  73   38   76 1
  74   39   40 ar
  75   39   41 1
  76   40   77 1
  77   42   43 1
  78   43   44 1
  79   43   78 1
  80   43   79 1
  81   44   80 1
  82   44   81 1
  83   44   82 1
  84   45   47 1
  85   46   47 1
  86   46   83 1
  87   46   84 1
  88   46   85 1
  89   47   86 1
  90   47   87 1
  91   48   49 2
  92   48   50 2

#	End of record

