#	Name: ASD01911877
#	Creating user name:	WinNT
#	Creation time:	15. 06. 2019 19:58

#	Modifying user name:	WinNT
#	Modification time:	15. 06. 2019 19:58

#	Program:	/corina/corina34_cracker 3.40 0067  02.08.2006

@<TRIPOS>MOLECULE
ASD01911877
  43   45    0    0    0
SMALL
NO_CHARGES


@<TRIPOS>ATOM
   1 C1            -0.7966     1.4661    -0.5670 C.ar    
   2 C2            -0.8761     0.0894    -0.7666 C.ar    
   3 C3            -0.7011    -0.4166    -2.0483 C.ar    
   4 N4            -0.4628     0.3904    -3.0628 N.ar    
   5 C5            -0.3816     1.6973    -2.9069 C.ar    
   6 C6            -0.5449     2.2760    -1.6617 C.ar    
   7 N7            -1.1278    -0.7694     0.3066 N.pl3   
   8 C8            -1.2217    -2.1467     0.0920 C.ar    
   9 C9            -0.0936    -2.8727    -0.2722 C.ar    
  10 C10           -0.1859    -4.2343    -0.4850 C.ar    
  11 C11           -1.3990    -4.8793    -0.3368 C.ar    
  12 C12           -2.5303    -4.1597     0.0275 C.ar    
  13 C13           -2.4401    -2.7925     0.2477 C.ar    
  14 N14           -3.7576    -4.8133     0.1768 N.am    
  15 C15           -4.9035    -4.1732    -0.1291 C.2     
  16 C16           -6.2051    -4.8263     0.1240 C.ar    
  17 O17           -4.8666    -3.0587    -0.6132 O.2     
  18 C18           -6.2510    -6.1059     0.6797 C.ar    
  19 C19           -7.4693    -6.7096     0.9139 C.ar    
  20 C20           -8.6437    -6.0498     0.5987 C.ar    
  21 C21           -8.6053    -4.7812     0.0472 C.ar    
  22 C22           -7.3942    -4.1638    -0.1863 C.ar    
  23 C23           -9.8896    -4.0705    -0.2938 C.3     
  24 C24           -1.2931    -0.2255     1.6568 C.3     
  25 H25           -0.9324     1.8913     0.4165 H       
  26 H26           -0.7606    -1.4820    -2.2152 H       
  27 H27           -0.1847     2.3244    -3.7638 H       
  28 H28           -0.4766     3.3475    -1.5443 H       
  29 H29            0.8559    -2.3716    -0.3892 H       
  30 H30            0.6919    -4.7961    -0.7682 H       
  31 H31           -1.4679    -5.9440    -0.5046 H       
  32 H32           -3.3180    -2.2309     0.5309 H       
  33 H33           -3.7841    -5.7273     0.5005 H       
  34 H34           -5.3349    -6.6223     0.9255 H       
  35 H35           -7.5062    -7.6997     1.3438 H       
  36 H36           -9.5947    -6.5270     0.7837 H       
  37 H37           -7.3655    -3.1737    -0.6168 H       
  38 H38          -10.2223    -3.4888     0.5659 H       
  39 H39           -9.7226    -3.4045    -1.1404 H       
  40 H40          -10.6529    -4.8040    -0.5536 H       
  41 H41           -2.3446     0.0035     1.8301 H       
  42 H42           -0.9559    -0.9600     2.3882 H       
  43 H43           -0.7018     0.6847     1.7568 H       
@<TRIPOS>BOND
   1    1    2 ar
   2    1    6 ar
   3    1   25 1
   4    2    3 ar
   5    2    7 1
   6    3    4 ar
   7    3   26 1
   8    4    5 ar
   9    5    6 ar
  10    5   27 1
  11    6   28 1
  12    7    8 1
  13    7   24 1
  14    8    9 ar
  15    8   13 ar
  16    9   10 ar
  17    9   29 1
  18   10   11 ar
  19   10   30 1
  20   11   12 ar
  21   11   31 1
  22   12   13 ar
  23   12   14 1
  24   13   32 1
  25   14   15 am
  26   14   33 1
  27   15   16 1
  28   15   17 2
  29   16   18 ar
  30   16   22 ar
  31   18   19 ar
  32   18   34 1
  33   19   20 ar
  34   19   35 1
  35   20   21 ar
  36   20   36 1
  37   21   22 ar
  38   21   23 1
  39   22   37 1
  40   23   38 1
  41   23   39 1
  42   23   40 1
  43   24   41 1
  44   24   42 1
  45   24   43 1

#	End of record

