#	Name: ASD01209052
#	Creating user name:	WinNT
#	Creation time:	15. 06. 2019 19:10

#	Modifying user name:	WinNT
#	Modification time:	15. 06. 2019 19:10

#	Program:	/corina/corina34_cracker 3.40 0067  02.08.2006

@<TRIPOS>MOLECULE
ASD01209052
  54   58    0    0    0
SMALL
NO_CHARGES


@<TRIPOS>ATOM
   1 C1            -2.0703     1.6166    -1.0110 C.3     
   2 C2            -2.1029     0.0899    -1.1313 C.3     
   3 C3            -1.4200    -0.3229    -2.4388 C.3     
   4 C4            -2.1211     0.3674    -3.6117 C.3     
   5 C5            -2.7462     2.2320    -2.2390 C.3     
   6 C6            -1.3605    -0.5328     0.0527 C.3     
   7 C7            -1.5307    -2.0529     0.0190 C.3     
   8 C8            -0.7065    -2.6752     1.1166 C.2     
   9 N9             0.6325    -2.5222     1.1230 N.am    
  10 C10            1.4025    -3.1748     2.0802 C.2     
  11 N11           -2.9424    -2.3907     0.2171 N.pl3   
  12 S12            3.1557    -3.0771     2.2207 S.3     
  13 C13            3.1013    -4.1617     3.6088 C.2     
  14 C14            1.8268    -4.4876     3.8347 C.2     
  15 N15            0.9433    -3.9484     3.0155 N.2     
  16 N16           -3.8634    -2.6297    -0.8102 N.2     
  17 C17           -5.0378    -2.9056    -0.2773 C.ar    
  18 C18           -4.8649    -2.8408     1.1854 C.ar    
  19 C19           -3.5424    -2.5224     1.4094 C.2     
  20 O20           -1.2482    -3.3137     1.9941 O.2     
  21 O21           -2.0817     1.7832    -3.4219 O.3     
  22 F22            4.1664    -4.5902     4.3210 F       
  23 C23           -6.3189    -3.2239    -0.7727 C.ar    
  24 N24           -7.3024    -3.4492     0.0617 N.ar    
  25 C25           -7.1729    -3.3972     1.3825 C.ar    
  26 C26           -5.9963    -3.1021     1.9908 C.ar    
  27 S27           -5.8813    -3.0473     3.7482 S.o2    
  28 C28           -4.7562    -4.4061     4.1707 C.3     
  29 O29           -5.2723    -1.7927     4.0206 O.2     
  30 O30           -7.1995    -3.3342     4.1947 O.2     
  31 C31           -4.5352    -4.7047     5.6549 C.3     
  32 C32           -5.3677    -5.6605     4.7980 C.3     
  33 H33           -2.6028     1.9225    -0.1105 H       
  34 H34           -1.0358     1.9556    -0.9564 H       
  35 H35           -3.1374    -0.2534    -1.1360 H       
  36 H36           -0.3724    -0.0231    -2.4130 H       
  37 H37           -1.4875    -1.4041    -2.5594 H       
  38 H38           -1.6125     0.1110    -4.5410 H       
  39 H39           -3.1583     0.0360    -3.6612 H       
  40 H40           -3.7916     1.9250    -2.2706 H       
  41 H41           -2.6880     3.3189    -2.1795 H       
  42 H42           -0.3011    -0.2844    -0.0114 H       
  43 H43           -1.7696    -0.1419     0.9843 H       
  44 H44           -1.1978    -2.4345    -0.9462 H       
  45 H45            1.0593    -1.9570     0.4603 H       
  46 H46            1.5364    -5.1470     4.6393 H       
  47 H47           -3.0738    -2.3956     2.3741 H       
  48 H48           -6.4887    -3.2813    -1.8377 H       
  49 H49           -8.0384    -3.5970     1.9967 H       
  50 H50           -3.9089    -4.5411     3.4985 H       
  51 H51           -3.5425    -5.0365     5.9591 H       
  52 H52           -5.0658    -4.0846     6.3775 H       
  53 H53           -6.4461    -5.6692     4.9569 H       
  54 H54           -4.9227    -6.6211     4.5385 H       
@<TRIPOS>BOND
   1    1    2 1
   2    1    5 1
   3    1   33 1
   4    1   34 1
   5    2    3 1
   6    2    6 1
   7    2   35 1
   8    3    4 1
   9    3   36 1
  10    3   37 1
  11    4   21 1
  12    4   38 1
  13    4   39 1
  14    5   21 1
  15    5   40 1
  16    5   41 1
  17    6    7 1
  18    6   42 1
  19    6   43 1
  20    7    8 1
  21    7   11 1
  22    7   44 1
  23    8    9 am
  24    8   20 2
  25    9   10 1
  26    9   45 1
  27   10   12 1
  28   10   15 2
  29   11   16 1
  30   11   19 1
  31   12   13 1
  32   13   14 2
  33   13   22 1
  34   14   15 1
  35   14   46 1
  36   16   17 2
  37   17   18 ar
  38   17   23 ar
  39   18   19 2
  40   18   26 ar
  41   19   47 1
  42   23   24 ar
  43   23   48 1
  44   24   25 ar
  45   25   26 ar
  46   25   49 1
  47   26   27 1
  48   27   28 1
  49   27   29 2
  50   27   30 2
  51   28   31 1
  52   28   32 1
  53   28   50 1
  54   31   32 1
  55   31   51 1
  56   31   52 1
  57   32   53 1
  58   32   54 1

#	End of record

