#	Name: ASD09116078
#	Creating user name:	WinNT
#	Creation time:	15. 06. 2019 21:20

#	Modifying user name:	WinNT
#	Modification time:	15. 06. 2019 21:20

#	Program:	/corina/corina34_cracker 3.40 0067  02.08.2006

@<TRIPOS>MOLECULE
ASD09116078
  66   70    0    0    0
SMALL
NO_CHARGES


@<TRIPOS>ATOM
   1 C1             0.1656     1.3970     0.2808 C.ar    
   2 N2             0.1460     0.0018     0.2227 N.pl3   
   3 N3             1.1068    -0.8286    -0.3763 N.2     
   4 C4             0.7049    -2.0651    -0.2041 C.2     
   5 N5            -0.4522    -2.0579     0.4681 N.2     
   6 C6            -0.8002    -0.8179     0.7378 C.2     
   7 N7            -1.9356    -0.4220     1.4187 N.pl3   
   8 N8             1.3752    -3.2041    -0.6505 N.pl3   
   9 C9             1.3785     2.0703     0.2008 C.ar    
  10 N10           -0.9736     2.0632     0.4061 N.ar    
  11 C11           -0.9933     3.3760     0.4661 C.ar    
  12 C12            0.1780     4.1113     0.3870 C.ar    
  13 C13            1.3880     3.4555     0.2537 C.ar    
  14 C14            0.9014    -4.4752    -0.3053 C.ar    
  15 C15            1.1146    -5.5511    -1.1572 C.ar    
  16 C16            0.6473    -6.8049    -0.8157 C.ar    
  17 C17           -0.0352    -6.9898     0.3777 C.ar    
  18 C18           -0.2486    -5.9158     1.2292 C.ar    
  19 C19            0.2230    -4.6624     0.8919 C.ar    
  20 O20           -0.4958    -8.2247     0.7128 O.3     
  21 C21           -1.1901    -8.3427     1.9562 C.3     
  22 C22           -1.6291    -9.7942     2.1594 C.3     
  23 C23           -2.2766     4.1457     0.6405 C.3     
  24 C24           -2.8240     4.6449    -0.6575 C.3     
  25 C25           -2.2040     5.8869    -1.2660 C.3     
  26 C26           -0.8376     5.5526    -1.8921 C.3     
  27 C27            0.2622     6.1641    -0.9816 C.3     
  28 C28            0.0939     5.6125     0.4330 C.3     
  29 N29           -0.4430   -10.6504     2.2937 N.3     
  30 C30           -0.8183   -12.0092     2.7258 C.3     
  31 C31           -0.2708   -12.9923     1.6697 C.3     
  32 C32            0.8704   -12.1839     0.9981 C.3     
  33 C33            0.2873   -10.7488     1.0120 C.3     
  34 H34           -2.5618    -1.0869     1.7455 H       
  35 H35           -2.1066     0.5208     1.5698 H       
  36 H36            2.1695    -3.1153    -1.2000 H       
  37 H37            2.3028     1.5210     0.0991 H       
  38 H38            2.3149     4.0069     0.1963 H       
  39 H39            1.6454    -5.4072    -2.0867 H       
  40 H40            0.8130    -7.6417    -1.4781 H       
  41 H41           -0.7801    -6.0607     2.1581 H       
  42 H42            0.0571    -3.8264     1.5552 H       
  43 H43           -0.5295    -8.0455     2.7708 H       
  44 H44           -2.0673    -7.6959     1.9454 H       
  45 H45           -2.2344    -9.8677     3.0629 H       
  46 H46           -2.2167   -10.1196     1.3010 H       
  47 H47           -3.0164     3.4966     1.1090 H       
  48 H48           -2.0913     4.9967     1.2959 H       
  49 H49           -2.7352     3.8392    -1.3862 H       
  50 H50           -3.8868     4.8408    -0.5154 H       
  51 H51           -2.8670     6.2805    -2.0364 H       
  52 H52           -2.0703     6.6405    -0.4899 H       
  53 H53           -0.7116     4.4714    -1.9482 H       
  54 H54           -0.7731     5.9851    -2.8905 H       
  55 H55            1.2460     5.8930    -1.3647 H       
  56 H56            0.1610     7.2493    -0.9649 H       
  57 H57           -0.8771     5.9114     0.8278 H       
  58 H58            0.8852     6.0027     1.0731 H       
  59 H59           -0.3752   -12.2248     3.6981 H       
  60 H60           -1.9035   -12.0935     2.7835 H       
  61 H61            0.1220   -13.8904     2.1463 H       
  62 H62           -1.0424   -13.2464     0.9430 H       
  63 H63            1.7864   -12.2389     1.5864 H       
  64 H64            1.0425   -12.5255    -0.0225 H       
  65 H65           -0.3958   -10.6086     0.1743 H       
  66 H66            1.0903   -10.0126     0.9753 H       
@<TRIPOS>BOND
   1    1    2 1
   2    1    9 ar
   3    1   10 ar
   4    2    3 1
   5    2    6 1
   6    3    4 2
   7    4    5 1
   8    4    8 1
   9    5    6 2
  10    6    7 1
  11    7   34 1
  12    7   35 1
  13    8   14 1
  14    8   36 1
  15    9   13 ar
  16    9   37 1
  17   10   11 ar
  18   11   12 ar
  19   11   23 1
  20   12   13 ar
  21   12   28 1
  22   13   38 1
  23   14   15 ar
  24   14   19 ar
  25   15   16 ar
  26   15   39 1
  27   16   17 ar
  28   16   40 1
  29   17   18 ar
  30   17   20 1
  31   18   19 ar
  32   18   41 1
  33   19   42 1
  34   20   21 1
  35   21   22 1
  36   21   43 1
  37   21   44 1
  38   22   29 1
  39   22   45 1
  40   22   46 1
  41   23   24 1
  42   23   47 1
  43   23   48 1
  44   24   25 1
  45   24   49 1
  46   24   50 1
  47   25   26 1
  48   25   51 1
  49   25   52 1
  50   26   27 1
  51   26   53 1
  52   26   54 1
  53   27   28 1
  54   27   55 1
  55   27   56 1
  56   28   57 1
  57   28   58 1
  58   29   30 1
  59   29   33 1
  60   30   31 1
  61   30   59 1
  62   30   60 1
  63   31   32 1
  64   31   61 1
  65   31   62 1
  66   32   33 1
  67   32   63 1
  68   32   64 1
  69   33   65 1
  70   33   66 1

#	End of record

