#	Name: ASD05143087
#	Creating user name:	WinNT
#	Creation time:	15. 06. 2019 20:57

#	Modifying user name:	WinNT
#	Modification time:	15. 06. 2019 20:57

#	Program:	/corina/corina34_cracker 3.40 0067  02.08.2006

@<TRIPOS>MOLECULE
ASD05143087
 145  148    0    0    0
SMALL
NO_CHARGES


@<TRIPOS>ATOM
   1 C1             1.8341     3.5201     0.8204 C.2     
   2 C2             2.3908     2.1198     0.8352 C.3     
   3 N3             2.6514     4.5724     1.0232 N.am    
   4 O4             0.6514     3.7004     0.6210 O.2     
   5 C5             2.1102     5.9337     1.0088 C.3     
   6 C6             1.4756     6.2159    -0.3545 C.3     
   7 C7             1.0660     6.0706     2.0869 C.2     
   8 C8             2.5592     6.1997    -1.4345 C.3     
   9 C9             1.9247     6.4818    -2.7979 C.3     
  10 N10            2.9623     6.4663    -3.8320 N.pl3   
  11 C11            2.6272     6.6964    -5.1454 C.2     
  12 N12            3.6009     6.6818    -6.1159 N.pl3   
  13 N13            1.3865     6.9283    -5.4705 N.2     
  14 O14            0.5373     5.0813     2.5480 O.2     
  15 N15            0.7199     7.2923     2.5385 N.am    
  16 C16           -0.2951     7.4254     3.5865 C.3     
  17 C17           -0.0782     8.7375     4.3429 C.3     
  18 C18            1.3801     8.8298     4.7959 C.3     
  19 C19            1.8945    10.2532     4.5720 C.3     
  20 N20            1.5330    10.6970     3.2191 N.3     
  21 C21            2.2079    11.9569     2.8798 C.3     
  22 C22            1.3467    12.7457     1.8913 C.3     
  23 C23            2.2165    13.7712     1.1617 C.3     
  24 C24            1.3446    14.9390     0.6958 C.3     
  25 N25            0.9079    14.6854    -0.6915 N.am    
  26 C26            2.1419    16.2167     0.7484 C.2     
  27 N27            2.3117    16.8573     1.9220 N.am    
  28 O28            2.6308    16.6686    -0.2653 O.2     
  29 C29           -0.4298    14.5274    -0.8904 C.2     
  30 O30           -1.2025    14.5884     0.0424 O.2     
  31 C31           -0.9356    14.2760    -2.2876 C.3     
  32 N32           -2.3247    13.7702    -2.2069 N.am    
  33 C33           -0.9105    15.5816    -3.0850 C.3     
  34 C34           -2.5067    12.4905    -2.6498 C.2     
  35 O35           -1.5699    11.8422    -3.0658 O.2     
  36 C36           -3.8921    11.8992    -2.6118 C.3     
  37 N37           -3.7882    10.4316    -2.7379 N.am    
  38 C38           -4.5642    12.2532    -1.2837 C.3     
  39 C39           -4.2740     9.6957    -1.7011 C.2     
  40 O40           -4.7631    10.2430    -0.7356 O.2     
  41 C41           -4.1968     8.1923    -1.7684 C.3     
  42 C42           -1.2992    15.3048    -4.5144 C.2     
  43 C43           -2.6613    15.2317    -5.0485 C.ar    
  44 C44           -2.5264    14.9533    -6.4207 C.ar    
  45 N45           -1.1783    14.8662    -6.6869 N.pl3   
  46 C46           -0.4629    15.0841    -5.5410 C.2     
  47 C47           -3.9323    15.3758    -4.4885 C.ar    
  48 C48           -5.0399    15.2452    -5.2776 C.ar    
  49 C49           -4.9121    14.9700    -6.6324 C.ar    
  50 C50           -3.6679    14.8249    -7.2055 C.ar    
  51 N51           -4.3739     7.6485    -0.4023 N.am    
  52 C52           -2.8311     7.7721    -2.3155 C.3     
  53 C53           -2.7309     8.1601    -3.7682 C.ar    
  54 C54           -1.8145     9.1153    -4.1660 C.ar    
  55 C55           -1.7216     9.4718    -5.5002 C.ar    
  56 C56           -2.5484     8.8700    -6.4364 C.ar    
  57 C57           -3.4651     7.9138    -6.0347 C.ar    
  58 C58           -3.5518     7.5562    -4.7025 C.ar    
  59 C59           -1.6662     7.4269     2.9606 C.2     
  60 O60           -2.4551     8.3137     3.2098 O.2     
  61 C61           -6.0495    11.8925    -1.3518 C.3     
  62 C62           -6.6891    12.1037     0.0220 C.3     
  63 N63           -8.1113    11.7583    -0.0431 N.pl3   
  64 C64           -8.8979    11.8699     1.0790 C.2     
  65 N65           -8.3498    12.3056     2.2621 N.pl3   
  66 N66          -10.1632    11.5625     1.0210 N.2     
  67 N67           -2.0063     6.4187     2.1112 N.am    
  68 C68           -3.3609     6.4764     1.5265 C.3     
  69 C69           -3.2678     7.0573     0.1392 C.2     
  70 O70           -2.2298     7.0006    -0.4855 O.2     
  71 C71           -4.2565     7.3627     2.3944 C.3     
  72 C72           -4.2293     6.8648     3.8165 C.2     
  73 O73           -3.5596     5.8964     4.1073 O.2     
  74 N74           -4.9493     7.4956     4.7653 N.am    
  75 F75           -0.8264    10.4057    -5.8898 F       
  76 F76           -2.4598     9.2167    -7.7391 F       
  77 H77            3.4638     2.1574     1.0232 H       
  78 H78            1.9041     1.5436     1.6221 H       
  79 H79            2.2072     1.6456    -0.1289 H       
  80 H80            3.5979     4.4284     1.1787 H       
  81 H81            2.9147     6.6465     1.1897 H       
  82 H82            0.7318     5.4501    -0.5746 H       
  83 H83            0.9954     7.1942    -0.3363 H       
  84 H84            3.3030     6.9654    -1.2145 H       
  85 H85            3.0394     5.2213    -1.4528 H       
  86 H86            1.1809     5.7160    -3.0179 H       
  87 H87            1.4445     7.4602    -2.7796 H       
  88 H88            3.8856     6.2937    -3.5901 H       
  89 H89            4.5243     6.5092    -5.8740 H       
  90 H90            3.3646     6.8442    -7.0426 H       
  91 H91            1.1501     7.0906    -6.3971 H       
  92 H92            1.1428     8.0835     2.1696 H       
  93 H93           -0.2133     6.5884     4.2799 H       
  94 H94           -0.3089     9.5772     3.6873 H       
  95 H95           -0.7320     8.7668     5.2145 H       
  96 H96            1.4480     8.5813     5.8550 H       
  97 H97            1.9848     8.1300     4.2190 H       
  98 H98            1.4447    10.9217     5.3061 H       
  99 H99            2.9788    10.2692     4.6822 H       
 100 H100           1.7379     9.9820     2.5372 H       
 101 H101           2.3540    12.5461     3.7851 H       
 102 H102           3.1753    11.7405     2.4268 H       
 103 H103           0.9066    12.0612     1.1662 H       
 104 H104           0.5531    13.2615     2.4320 H       
 105 H105           2.9875    14.1405     1.8379 H       
 106 H106           2.6857    13.3007     0.2977 H       
 107 H107           0.4720    15.0242     1.3434 H       
 108 H108           1.5417    14.6342    -1.4241 H       
 109 H109           1.9207    16.4958     2.7328 H       
 110 H110           2.8249    17.6797     1.9559 H       
 111 H111          -0.3043    13.5342    -2.7769 H       
 112 H112          -3.0542    14.3093    -1.8634 H       
 113 H113          -1.6154    16.2883    -2.6471 H       
 114 H114           0.0934    16.0052    -3.0570 H       
 115 H115          -4.4813    12.2960    -3.4386 H       
 116 H116          -3.3943    10.0136    -3.5196 H       
 117 H117          -4.0911    11.6940    -0.4766 H       
 118 H118          -4.4581    13.3217    -1.0963 H       
 119 H119          -4.9862     7.8141    -2.4180 H       
 120 H120          -0.7930    14.6818    -7.5577 H       
 121 H121           0.6148    15.0724    -5.4712 H       
 122 H122          -4.0394    15.5892    -3.4352 H       
 123 H123          -6.0228    15.3567    -4.8441 H       
 124 H124          -5.7970    14.8693    -7.2432 H       
 125 H125          -3.5790    14.6112    -8.2604 H       
 126 H126          -5.2163     7.7083     0.0748 H       
 127 H127          -2.0441     8.2719    -1.7508 H       
 128 H128          -2.7177     6.6923    -2.2192 H       
 129 H129          -1.1712     9.5836    -3.4358 H       
 130 H130          -4.1098     7.4443    -6.7630 H       
 131 H131          -4.2673     6.8100    -4.3898 H       
 132 H132          -6.5448    12.5291    -2.0849 H       
 133 H133          -6.1567    10.8483    -1.6457 H       
 134 H134          -6.1938    11.4672     0.7552 H       
 135 H135          -6.5819    13.1479     0.3160 H       
 136 H136          -8.4980    11.4509    -0.8779 H       
 137 H137          -7.4081    12.5343     2.3053 H       
 138 H138          -8.9048    12.3843     3.0538 H       
 139 H139         -10.7182    11.6413     1.8127 H       
 140 H140          -1.3904     5.6993     1.9011 H       
 141 H141          -3.7792     5.4712     1.4742 H       
 142 H142          -3.8924     8.3896     2.3619 H       
 143 H143          -5.2783     7.3274     2.0165 H       
 144 H144          -5.4849     8.2702     4.5327 H       
 145 H145          -4.9318     7.1752     5.6806 H       
@<TRIPOS>BOND
   1    1    2 1
   2    1    3 am
   3    1    4 2
   4    2   77 1
   5    2   78 1
   6    2   79 1
   7    3    5 1
   8    3   80 1
   9    5    6 1
  10    5    7 1
  11    5   81 1
  12    6    8 1
  13    6   82 1
  14    6   83 1
  15    7   14 2
  16    7   15 am
  17    8    9 1
  18    8   84 1
  19    8   85 1
  20    9   10 1
  21    9   86 1
  22    9   87 1
  23   10   11 1
  24   10   88 1
  25   11   12 1
  26   11   13 2
  27   12   89 1
  28   12   90 1
  29   13   91 1
  30   15   16 1
  31   15   92 1
  32   16   17 1
  33   16   59 1
  34   16   93 1
  35   17   18 1
  36   17   94 1
  37   17   95 1
  38   18   19 1
  39   18   96 1
  40   18   97 1
  41   19   20 1
  42   19   98 1
  43   19   99 1
  44   20   21 1
  45   20  100 1
  46   21   22 1
  47   21  101 1
  48   21  102 1
  49   22   23 1
  50   22  103 1
  51   22  104 1
  52   23   24 1
  53   23  105 1
  54   23  106 1
  55   24   25 1
  56   24   26 1
  57   24  107 1
  58   25   29 am
  59   25  108 1
  60   26   27 am
  61   26   28 2
  62   27  109 1
  63   27  110 1
  64   29   30 2
  65   29   31 1
  66   31   32 1
  67   31   33 1
  68   31  111 1
  69   32   34 am
  70   32  112 1
  71   33   42 1
  72   33  113 1
  73   33  114 1
  74   34   35 2
  75   34   36 1
  76   36   37 1
  77   36   38 1
  78   36  115 1
  79   37   39 am
  80   37  116 1
  81   38   61 1
  82   38  117 1
  83   38  118 1
  84   39   40 2
  85   39   41 1
  86   41   51 1
  87   41   52 1
  88   41  119 1
  89   42   43 1
  90   42   46 2
  91   43   44 ar
  92   43   47 ar
  93   44   45 1
  94   44   50 ar
  95   45   46 1
  96   45  120 1
  97   46  121 1
  98   47   48 ar
  99   47  122 1
 100   48   49 ar
 101   48  123 1
 102   49   50 ar
 103   49  124 1
 104   50  125 1
 105   51   69 am
 106   51  126 1
 107   52   53 1
 108   52  127 1
 109   52  128 1
 110   53   54 ar
 111   53   58 ar
 112   54   55 ar
 113   54  129 1
 114   55   56 ar
 115   55   75 1
 116   56   57 ar
 117   56   76 1
 118   57   58 ar
 119   57  130 1
 120   58  131 1
 121   59   60 2
 122   59   67 am
 123   61   62 1
 124   61  132 1
 125   61  133 1
 126   62   63 1
 127   62  134 1
 128   62  135 1
 129   63   64 1
 130   63  136 1
 131   64   65 1
 132   64   66 2
 133   65  137 1
 134   65  138 1
 135   66  139 1
 136   67   68 1
 137   67  140 1
 138   68   69 1
 139   68   71 1
 140   68  141 1
 141   69   70 2
 142   71   72 1
 143   71  142 1
 144   71  143 1
 145   72   73 2
 146   72   74 am
 147   74  144 1
 148   74  145 1

#	End of record

