#	Name: ASD01910829
#	Creating user name:	WinNT
#	Creation time:	15. 06. 2019 19:56

#	Modifying user name:	WinNT
#	Modification time:	15. 06. 2019 19:56

#	Program:	/corina/corina34_cracker 3.40 0067  02.08.2006

@<TRIPOS>MOLECULE
ASD01910829
  58   61    0    0    0
SMALL
NO_CHARGES


@<TRIPOS>ATOM
   1 C1            12.4857    -1.9005     4.2684 C.ar    
   2 C2            13.1049    -2.0640     3.0365 C.ar    
   3 C3            12.3944    -1.7453     1.8930 C.ar    
   4 C4            11.0913    -1.2744     2.0155 C.ar    
   5 N5            10.5357    -1.1318     3.2090 N.ar    
   6 C6            11.1892    -1.4283     4.3162 C.ar    
   7 N7            10.3660    -0.9503     0.8748 N.3     
   8 C8             9.0204    -0.4755     1.2239 C.3     
   9 C9             8.3209     0.0400    -0.0383 C.3     
  10 N10            8.3617    -1.0172    -1.0600 N.am    
  11 C11            9.6589    -1.6392    -1.3663 C.3     
  12 C12           10.3057    -2.0886    -0.0518 C.3     
  13 C13            7.2404    -1.4055    -1.6989 C.2     
  14 C14            7.3210    -2.3783    -2.8062 C.ar    
  15 O15            6.1623    -0.9545    -1.3633 O.2     
  16 C16            6.3482    -3.3718    -2.9371 C.ar    
  17 C17            6.4249    -4.2794    -3.9716 C.ar    
  18 C18            7.4673    -4.2087    -4.8852 C.ar    
  19 C19            8.4416    -3.2189    -4.7606 C.ar    
  20 C20            8.3679    -2.3035    -3.7292 C.ar    
  21 O21            9.4618    -3.1522    -5.6575 O.3     
  22 C22           10.4243    -2.1130    -5.4691 C.3     
  23 C23           11.4712    -2.1959    -6.5499 C.ar    
  24 C24           11.2983    -1.5044    -7.7341 C.ar    
  25 C25           12.2588    -1.5806    -8.7256 C.ar    
  26 C26           13.3920    -2.3478    -8.5326 C.ar    
  27 C27           13.5654    -3.0388    -7.3477 C.ar    
  28 C28           12.6074    -2.9592    -6.3547 C.ar    
  29 C29           12.0697    -0.8274   -10.0172 C.3     
  30 O30            7.5387    -5.1055    -5.9025 O.3     
  31 C31            6.5079    -6.0929    -5.9704 C.3     
  32 H32           13.0114    -2.1445     5.1797 H       
  33 H33           14.1184    -2.4315     2.9724 H       
  34 H34           12.8456    -1.8601     0.9185 H       
  35 H35           10.7039    -1.2993     5.2724 H       
  36 H36            8.4439    -1.2969     1.6495 H       
  37 H37            9.0971     0.3314     1.9526 H       
  38 H38            7.2844     0.2865     0.1922 H       
  39 H39            8.8375     0.9260    -0.4073 H       
  40 H40            9.5071    -2.5028    -2.0137 H       
  41 H41           10.3042    -0.9146    -1.8630 H       
  42 H42           11.3146    -2.4514    -0.2483 H       
  43 H43            9.7114    -2.8875     0.3915 H       
  44 H44            5.5360    -3.4291    -2.2276 H       
  45 H45            5.6723    -5.0476    -4.0712 H       
  46 H46            9.1217    -1.5362    -3.6317 H       
  47 H47            9.9273    -1.1441    -5.5183 H       
  48 H48           10.8983    -2.2290    -4.4945 H       
  49 H49           10.4128    -0.9049    -7.8849 H       
  50 H50           14.1420    -2.4079    -9.3075 H       
  51 H51           14.4508    -3.6387    -7.1970 H       
  52 H52           12.7428    -3.4990    -5.4291 H       
  53 H53           12.5056     0.1674    -9.9247 H       
  54 H54           12.5618    -1.3658   -10.8271 H       
  55 H55           11.0051    -0.7389   -10.2337 H       
  56 H56            6.6842    -6.7438    -6.8267 H       
  57 H57            6.5123    -6.6862    -5.0560 H       
  58 H58            5.5410    -5.6018    -6.0802 H       
@<TRIPOS>BOND
   1    1    2 ar
   2    1    6 ar
   3    1   32 1
   4    2    3 ar
   5    2   33 1
   6    3    4 ar
   7    3   34 1
   8    4    5 ar
   9    4    7 1
  10    5    6 ar
  11    6   35 1
  12    7    8 1
  13    7   12 1
  14    8    9 1
  15    8   36 1
  16    8   37 1
  17    9   10 1
  18    9   38 1
  19    9   39 1
  20   10   11 1
  21   10   13 am
  22   11   12 1
  23   11   40 1
  24   11   41 1
  25   12   42 1
  26   12   43 1
  27   13   14 1
  28   13   15 2
  29   14   16 ar
  30   14   20 ar
  31   16   17 ar
  32   16   44 1
  33   17   18 ar
  34   17   45 1
  35   18   19 ar
  36   18   30 1
  37   19   20 ar
  38   19   21 1
  39   20   46 1
  40   21   22 1
  41   22   23 1
  42   22   47 1
  43   22   48 1
  44   23   24 ar
  45   23   28 ar
  46   24   25 ar
  47   24   49 1
  48   25   26 ar
  49   25   29 1
  50   26   27 ar
  51   26   50 1
  52   27   28 ar
  53   27   51 1
  54   28   52 1
  55   29   53 1
  56   29   54 1
  57   29   55 1
  58   30   31 1
  59   31   56 1
  60   31   57 1
  61   31   58 1

#	End of record

