#	Name: ASD04590141
#	Creating user name:	WinNT
#	Creation time:	15. 06. 2019 20:50

#	Modifying user name:	WinNT
#	Modification time:	15. 06. 2019 20:50

#	Program:	/corina/corina34_cracker 3.40 0067  02.08.2006

@<TRIPOS>MOLECULE
ASD04590141
  55   58    0    0    0
SMALL
NO_CHARGES


@<TRIPOS>ATOM
   1 N1             0.0005     1.2516    -0.4896 N.pl3   
   2 N2             0.0271    -0.0309    -0.5545 N.2     
   3 C3             1.2717    -0.4651    -0.5061 C.2     
   4 C4             2.1070     0.6770    -0.3994 C.2     
   5 C5             1.2626     1.7428    -0.3923 C.2     
   6 C6             1.7120    -1.8720    -0.5539 C.2     
   7 N7             0.8013    -2.8601    -0.6574 N.am    
   8 O8             2.8968    -2.1405    -0.4998 O.2     
   9 N9             3.5072     0.7014    -0.3183 N.am    
  10 C10            4.1562     1.8786    -0.2204 C.2     
  11 C11            6.3473     0.7104    -0.0422 C.ar    
  12 C12            5.6277     1.9042    -0.1353 C.ar    
  13 C13            1.2386    -4.2574    -0.7049 C.3     
  14 C14            0.1104    -5.1640    -0.2050 C.3     
  15 C15            0.5507    -6.6256    -0.3141 C.3     
  16 N16            0.8710    -6.9385    -1.7126 N.3     
  17 C17            1.9834    -6.1131    -2.2001 C.3     
  18 C18            1.5859    -4.6362    -2.1473 C.3     
  19 C19            7.7226     0.7412     0.0366 C.ar    
  20 C20            8.3977     1.9511     0.0246 C.ar    
  21 C21            7.7014     3.1391    -0.0673 C.ar    
  22 C22            6.3147     3.1285    -0.1476 C.ar    
  23 O23            3.5278     2.9197    -0.2023 O.2     
  24 N24            5.6115     4.3227    -0.2393 N.3     
  25 C25            5.9263     5.0246    -1.4922 C.3     
  26 C26            5.0873     6.3022    -1.5797 C.3     
  27 O27            5.3389     7.1116    -0.4277 O.3     
  28 C28            5.0426     6.4593     0.8100 C.3     
  29 C29            5.8811     5.1833     0.9218 C.3     
  30 H30           -0.8050     1.7917    -0.5112 H       
  31 H31            1.5429     2.7834    -0.3227 H       
  32 H32           -0.1438    -2.6459    -0.7005 H       
  33 H33            4.0084    -0.1289    -0.3328 H       
  34 H34            5.8259    -0.2353    -0.0276 H       
  35 H35            2.1167    -4.3860    -0.0720 H       
  36 H36           -0.1123    -4.9277     0.8356 H       
  37 H37           -0.7801    -5.0058    -0.8132 H       
  38 H38            1.4331    -6.7862     0.3053 H       
  39 H39           -0.2557    -7.2743     0.0277 H       
  40 H40            1.0725    -7.9206    -1.8264 H       
  41 H41            2.8591    -6.2762    -1.5719 H       
  42 H42            2.2175    -6.3897    -3.2281 H       
  43 H43            0.7186    -4.4698    -2.7861 H       
  44 H44            2.4174    -4.0229    -2.4944 H       
  45 H45            8.2772    -0.1827     0.1085 H       
  46 H46            9.4758     1.9646     0.0876 H       
  47 H47            8.2351     4.0780    -0.0757 H       
  48 H48            6.9852     5.2826    -1.5087 H       
  49 H49            5.6951     4.3786    -2.3392 H       
  50 H50            5.3586     6.8549    -2.4791 H       
  51 H51            4.0297     6.0413    -1.6172 H       
  52 H52            5.2816     7.1256     1.6389 H       
  53 H53            3.9837     6.2030     0.8420 H       
  54 H54            5.6170     4.6532     1.8368 H       
  55 H55            6.9393     5.4438     0.9438 H       
@<TRIPOS>BOND
   1    1    2 1
   2    1    5 1
   3    1   30 1
   4    2    3 2
   5    3    4 1
   6    3    6 1
   7    4    5 2
   8    4    9 1
   9    5   31 1
  10    6    7 am
  11    6    8 2
  12    7   13 1
  13    7   32 1
  14    9   10 am
  15    9   33 1
  16   10   23 2
  17   10   12 1
  18   11   12 ar
  19   11   19 ar
  20   11   34 1
  21   12   22 ar
  22   13   14 1
  23   13   18 1
  24   13   35 1
  25   14   15 1
  26   14   36 1
  27   14   37 1
  28   15   16 1
  29   15   38 1
  30   15   39 1
  31   16   17 1
  32   16   40 1
  33   17   18 1
  34   17   41 1
  35   17   42 1
  36   18   43 1
  37   18   44 1
  38   19   20 ar
  39   19   45 1
  40   20   21 ar
  41   20   46 1
  42   21   22 ar
  43   21   47 1
  44   22   24 1
  45   24   25 1
  46   24   29 1
  47   25   26 1
  48   25   48 1
  49   25   49 1
  50   26   27 1
  51   26   50 1
  52   26   51 1
  53   27   28 1
  54   28   29 1
  55   28   52 1
  56   28   53 1
  57   29   54 1
  58   29   55 1

#	End of record

