#	Name: ASD02500872
#	Creating user name:	WinNT
#	Creation time:	15. 06. 2019 20:23

#	Modifying user name:	WinNT
#	Modification time:	15. 06. 2019 20:23

#	Program:	/corina/corina34_cracker 3.40 0067  02.08.2006

@<TRIPOS>MOLECULE
ASD02500872
  45   47    0    0    0
SMALL
NO_CHARGES


@<TRIPOS>ATOM
   1 C1            -0.0163     1.3533     0.0095 C.2     
   2 C2            -0.1395     0.1817    -0.6650 C.2     
   3 C3             0.8479    -0.4670    -1.5355 C.2     
   4 N4             0.4558    -1.6130    -2.0668 N.am    
   5 C5            -0.7641    -2.0860    -1.7874 C.2     
   6 S6            -1.5289    -0.9225    -0.6910 S.3     
   7 O7             1.9448     0.0136    -1.7526 O.2     
   8 C8             1.3508    -2.3589    -2.9551 C.3     
   9 C9             2.1854    -3.3137    -2.1410 C.2     
  10 O10            3.0826    -4.1063    -2.7481 O.3     
  11 O11            2.0469    -3.3659    -0.9419 O.2     
  12 S12           -1.4523    -3.5406    -2.3719 S.2     
  13 C13            1.3398     3.4356    -0.0555 C.ar    
  14 C14            1.2802     2.0410     0.0557 C.ar    
  15 C15            2.5623     4.0764    -0.0109 C.ar    
  16 C16            3.7333     3.3355     0.1442 C.ar    
  17 C17            3.6755     1.9526     0.2551 C.ar    
  18 C18            2.4608     1.3044     0.2116 C.ar    
  19 O19            4.9345     3.9686     0.1869 O.3     
  20 C20            6.0943     3.1494     0.3476 C.3     
  21 C21            7.3244     4.0197     0.3728 C.ar    
  22 C22            8.5745     3.4459     0.5202 C.ar    
  23 C23            9.7037     4.2449     0.5433 C.ar    
  24 C24            9.5820     5.6170     0.4190 C.ar    
  25 C25            8.3309     6.1898     0.2717 C.ar    
  26 C26            7.2038     5.3907     0.2430 C.ar    
  27 Cl27           8.7263     1.7236     0.6767 Cl      
  28 O28            2.6241     5.4306    -0.1186 O.3     
  29 C29            1.3858     6.1262    -0.2757 C.3     
  30 Cl30          10.9982     6.6205     0.4485 Cl      
  31 H31           -0.8730     1.7818     0.5084 H       
  32 H32            0.7596    -2.9195    -3.6792 H       
  33 H33            2.0041    -1.6625    -3.4808 H       
  34 H34            3.5945    -4.7021    -2.1842 H       
  35 H35            0.4326     4.0081    -0.1804 H       
  36 H36            4.5856     1.3835     0.3747 H       
  37 H37            2.4190     0.2287     0.2981 H       
  38 H38            6.0214     2.5961     1.2839 H       
  39 H39            6.1621     2.4485    -0.4844 H       
  40 H40           10.6799     3.7975     0.6587 H       
  41 H41            8.2357     7.2613     0.1746 H       
  42 H42            6.2276     5.8382     0.1279 H       
  43 H43            1.5771     7.1967    -0.3494 H       
  44 H44            0.8886     5.7826    -1.1829 H       
  45 H45            0.7469     5.9297     0.5853 H       
@<TRIPOS>BOND
   1    1    2 2
   2    1   14 1
   3    1   31 1
   4    2    3 1
   5    2    6 1
   6    3    4 am
   7    3    7 2
   8    4    5 am
   9    4    8 1
  10    5    6 1
  11    5   12 2
  12    8    9 1
  13    8   32 1
  14    8   33 1
  15    9   10 1
  16    9   11 2
  17   10   34 1
  18   13   14 ar
  19   13   15 ar
  20   13   35 1
  21   14   18 ar
  22   15   16 ar
  23   15   28 1
  24   16   17 ar
  25   16   19 1
  26   17   18 ar
  27   17   36 1
  28   18   37 1
  29   19   20 1
  30   20   21 1
  31   20   38 1
  32   20   39 1
  33   21   22 ar
  34   21   26 ar
  35   22   23 ar
  36   22   27 1
  37   23   24 ar
  38   23   40 1
  39   24   25 ar
  40   24   30 1
  41   25   26 ar
  42   25   41 1
  43   26   42 1
  44   28   29 1
  45   29   43 1
  46   29   44 1
  47   29   45 1

#	End of record

