#	Name: ASD01914755
#	Creating user name:	WinNT
#	Creation time:	15. 06. 2019 20:04

#	Modifying user name:	WinNT
#	Modification time:	15. 06. 2019 20:04

#	Program:	/corina/corina34_cracker 3.40 0067  02.08.2006

@<TRIPOS>MOLECULE
ASD01914755
  41   44    0    0    0
SMALL
NO_CHARGES


@<TRIPOS>ATOM
   1 N1            -0.0263     1.3496     0.2458 N.am    
   2 C2             0.0016    -0.0051     0.0139 C.2     
   3 C3            -1.2639    -0.7044    -0.2248 C.2     
   4 C4            -2.4041     0.0120    -0.2068 C.2     
   5 N5            -2.3602     1.3673     0.0319 N.am    
   6 C6            -1.1988     2.0056     0.2554 C.2     
   7 C7             1.2749     1.7466     0.4355 C.2     
   8 C8             2.0448     0.6471     0.3168 C.2     
   9 N9             1.2546    -0.4043     0.0613 N.2     
  10 C10            3.5455     0.6068     0.4485 C.3     
  11 O11           -1.2085     3.2037     0.4618 O.2     
  12 C12           -3.5514     2.0951     0.0472 C.ar    
  13 O13            4.0352     1.9214     0.7209 O.3     
  14 C14            5.3788     2.0608     0.8692 C.ar    
  15 C15            5.9227     3.3091     1.1351 C.ar    
  16 C16            6.2084     0.9542     0.7606 C.ar    
  17 C17            7.5739     1.0985     0.9122 C.ar    
  18 C18            8.1139     2.3445     1.1725 C.ar    
  19 C19            7.2888     3.4481     1.2859 C.ar    
  20 N20           -3.5114     3.4179     0.0485 N.ar    
  21 C21           -4.6129     4.1435     0.0627 C.ar    
  22 C22           -5.8564     3.5429     0.0773 C.ar    
  23 C23           -5.9417     2.1573     0.0765 C.ar    
  24 C24           -4.7685     1.4237     0.0553 C.ar    
  25 C25           -4.5131     5.6472     0.0636 C.3     
  26 H26           -1.2816    -1.7681    -0.4110 H       
  27 H27           -3.3519    -0.4760    -0.3798 H       
  28 H28            1.6165     2.7504     0.6407 H       
  29 H29            3.8207    -0.0600     1.2657 H       
  30 H30            3.9822     0.2418    -0.4811 H       
  31 H31            5.2786     4.1715     1.2238 H       
  32 H32            5.7870    -0.0193     0.5580 H       
  33 H33            8.2201     0.2373     0.8278 H       
  34 H34            9.1817     2.4551     1.2910 H       
  35 H35            7.7131     4.4204     1.4889 H       
  36 H36           -6.7530     4.1448     0.0896 H       
  37 H37           -6.9020     1.6631     0.0877 H       
  38 H38           -4.7980     0.3441     0.0540 H       
  39 H39           -4.5014     6.0111    -0.9638 H       
  40 H40           -5.3709     6.0680     0.5883 H       
  41 H41           -3.5949     5.9502     0.5668 H       
@<TRIPOS>BOND
   1    1    2 1
   2    1    7 1
   3    1    6 am
   4    2    3 1
   5    2    9 2
   6    3    4 2
   7    3   26 1
   8    4    5 1
   9    4   27 1
  10    5    6 am
  11    5   12 1
  12    6   11 2
  13    7    8 2
  14    7   28 1
  15    8    9 1
  16    8   10 1
  17   10   13 1
  18   10   29 1
  19   10   30 1
  20   12   20 ar
  21   12   24 ar
  22   13   14 1
  23   14   15 ar
  24   14   16 ar
  25   15   19 ar
  26   15   31 1
  27   16   17 ar
  28   16   32 1
  29   17   18 ar
  30   17   33 1
  31   18   19 ar
  32   18   34 1
  33   19   35 1
  34   20   21 ar
  35   21   22 ar
  36   21   25 1
  37   22   23 ar
  38   22   36 1
  39   23   24 ar
  40   23   37 1
  41   24   38 1
  42   25   39 1
  43   25   40 1
  44   25   41 1

#	End of record

