#	Name: ASD01120041
#	Creating user name:	WinNT
#	Creation time:	15. 06. 2019 18:58

#	Modifying user name:	WinNT
#	Modification time:	15. 06. 2019 18:58

#	Program:	/corina/corina34_cracker 3.40 0067  02.08.2006

@<TRIPOS>MOLECULE
ASD01120041
  48   51    0    0    0
SMALL
NO_CHARGES


@<TRIPOS>ATOM
   1 C1            -0.0904     1.3502     0.6498 C.ar    
   2 C2            -0.0523    -0.0390     0.4662 C.ar    
   3 C3            -1.1845    -0.7312     0.0972 C.ar    
   4 C4            -2.3852    -0.0372    -0.0954 C.ar    
   5 C5            -2.4161     1.3670     0.0925 C.ar    
   6 C6            -1.2524     2.0462     0.4722 C.ar    
   7 N7            -3.5159    -0.6646    -0.4556 N.ar    
   8 C8            -4.6258     0.0126    -0.6291 C.ar    
   9 N9            -4.7021     1.3238    -0.4655 N.ar    
  10 C10           -3.6440     2.0408    -0.1100 C.ar    
  11 N11           -3.7382     3.4079     0.0575 N.pl3   
  12 C12           -4.9821     4.0391    -0.0332 C.ar    
  13 O13            1.0405     2.0115     1.0142 O.3     
  14 O14            1.1140    -0.7098     0.6539 O.3     
  15 C15           -6.1293     3.3761     0.3792 C.ar    
  16 C16           -7.3618     4.0063     0.2880 C.ar    
  17 C17           -7.4442     5.2979    -0.2154 C.ar    
  18 C18           -6.3003     5.9557    -0.6258 C.ar    
  19 C19           -5.0707     5.3336    -0.5312 C.ar    
  20 N20           -8.5231     3.3396     0.7032 N.pl3   
  21 C21            0.9378     3.4264     1.1858 C.3     
  22 C22            2.3004     3.9910     1.5927 C.3     
  23 C23            1.0887    -2.1242     0.4515 C.3     
  24 C24            2.4827    -2.7010     0.7070 C.3     
  25 N25           -8.6054     2.0406     1.2308 N.2     
  26 C26           -9.8681     1.8148     1.4841 C.2     
  27 N27          -10.5775     2.8914     1.1475 N.2     
  28 C28           -9.7818     3.8196     0.6810 C.2     
  29 H29           -1.1464    -1.8014    -0.0428 H       
  30 H30           -1.2713     3.1163     0.6165 H       
  31 H31           -5.5173    -0.5237    -0.9188 H       
  32 H32           -2.9412     3.9305     0.2381 H       
  33 H33           -6.0628     2.3715     0.7700 H       
  34 H34           -8.4036     5.7888    -0.2866 H       
  35 H35           -6.3673     6.9601    -1.0173 H       
  36 H36           -4.1784     5.8504    -0.8524 H       
  37 H37            0.6200     3.8840     0.2489 H       
  38 H38            0.2066     3.6460     1.9638 H       
  39 H39            2.6182     3.5335     2.5296 H       
  40 H40            3.0316     3.7715     0.8147 H       
  41 H41            2.2221     5.0703     1.7235 H       
  42 H42            0.3762    -2.5772     1.1409 H       
  43 H43            0.7889    -2.3392    -0.5742 H       
  44 H44            2.7824    -2.4860     1.7326 H       
  45 H45            2.4634    -3.7798     0.5526 H       
  46 H46            3.1952    -2.2480     0.0176 H       
  47 H47          -10.2711     0.9028     1.8993 H       
  48 H48          -10.0822     4.7967     0.3327 H       
@<TRIPOS>BOND
   1    1    2 ar
   2    1   13 1
   3    1    6 ar
   4    2    3 ar
   5    2   14 1
   6    3    4 ar
   7    3   29 1
   8    4    5 ar
   9    4    7 ar
  10    5    6 ar
  11    5   10 ar
  12    6   30 1
  13    7    8 ar
  14    8    9 ar
  15    8   31 1
  16    9   10 ar
  17   10   11 1
  18   11   12 1
  19   11   32 1
  20   12   15 ar
  21   12   19 ar
  22   13   21 1
  23   14   23 1
  24   15   16 ar
  25   15   33 1
  26   16   17 ar
  27   16   20 1
  28   17   18 ar
  29   17   34 1
  30   18   19 ar
  31   18   35 1
  32   19   36 1
  33   20   25 1
  34   20   28 1
  35   21   22 1
  36   21   37 1
  37   21   38 1
  38   22   39 1
  39   22   40 1
  40   22   41 1
  41   23   24 1
  42   23   42 1
  43   23   43 1
  44   24   44 1
  45   24   45 1
  46   24   46 1
  47   25   26 2
  48   26   27 1
  49   26   47 1
  50   27   28 2
  51   28   48 1

#	End of record

