#	Name: ASD05430124
#	Creating user name:	WinNT
#	Creation time:	15. 06. 2019 20:59

#	Modifying user name:	WinNT
#	Modification time:	15. 06. 2019 20:59

#	Program:	/corina/corina34_cracker 3.40 0067  02.08.2006

@<TRIPOS>MOLECULE
ASD05430124
  61   67    0    0    0
SMALL
NO_CHARGES


@<TRIPOS>ATOM
   1 F1             9.5558     5.0172    -4.8230 F       
   2 C2             0.1759     1.1743    -1.0320 C.ar    
   3 C3             0.0180    -0.0117    -0.3119 C.ar    
   4 C4             1.0473    -0.4834     0.4880 C.ar    
   5 C5             2.2395     0.2078     0.5851 C.ar    
   6 C6             2.4229     1.3949    -0.1238 C.ar    
   7 C7             1.3805     1.8838    -0.9414 C.ar    
   8 C8             4.9470    -0.0515    -0.0976 C.3     
   9 C9             4.8545     1.4583     0.0675 C.2     
  10 C10            3.6898     2.1308    -0.0203 C.2     
  11 C11            6.1172    -0.3671    -1.0271 C.3     
  12 C12            7.4680     0.1677    -0.5666 C.3     
  13 N13            7.3450     1.5324    -0.0730 N.pl3   
  14 C14            6.1472     2.1286     0.3333 C.2     
  15 C15            8.6958     3.2152    -1.2231 C.ar    
  16 C16            9.2175     4.4952    -1.2476 C.ar    
  17 C17            9.5067     5.1011    -2.4555 C.ar    
  18 C18            9.2738     4.4257    -3.6415 C.ar    
  19 C19            8.7514     3.1437    -3.6158 C.ar    
  20 C20            8.4678     2.5378    -2.4065 C.ar    
  21 N21           -1.1836    -0.7263    -0.3978 N.pl3   
  22 C22           -1.3184    -2.0663    -0.6548 C.2     
  23 C23           -2.6382    -2.3339    -0.6475 C.2     
  24 N24           -3.2957    -1.1927    -0.3935 N.2     
  25 C25           -2.4353    -0.2238    -0.2362 C.2     
  26 C26           -3.2677    -3.6825    -0.8843 C.3     
  27 N27            6.3738     3.2487     0.9311 N.2     
  28 C28            8.3813     2.5554     0.0948 C.3     
  29 O29            7.7716     3.4965     1.0030 O.3     
  30 C30            9.6449     1.9485     0.7080 C.3     
  31 O31           10.6366     2.9661     0.8600 O.3     
  32 C32            6.1634    -1.8423    -1.4600 C.3     
  33 O33            6.4336    -1.3280    -2.7799 O.3     
  34 C34            5.8139    -0.0556    -2.5034 C.3     
  35 C35            1.2363     3.0606    -1.7974 C.2     
  36 N36            0.0504     3.0152    -2.3247 N.2     
  37 O37           -0.6257     1.8585    -1.8738 O.3     
  38 H38            0.9156    -1.4013     1.0418 H       
  39 H39            3.0323    -0.1722     1.2124 H       
  40 H40            5.1152    -0.5164     0.8738 H       
  41 H41            4.0217    -0.4296    -0.5324 H       
  42 H42            3.6880     3.2108    -0.0147 H       
  43 H43            7.8524    -0.4684     0.2306 H       
  44 H44            8.1646     0.1512    -1.4047 H       
  45 H45            9.3987     5.0220    -0.3223 H       
  46 H46            9.9139     6.1013    -2.4744 H       
  47 H47            8.5693     2.6159    -4.5403 H       
  48 H48            8.0603     1.5378    -2.3861 H       
  49 H49           -0.5196    -2.7716    -0.8299 H       
  50 H50           -2.6783     0.8064    -0.0214 H       
  51 H51           -3.3737    -4.2059     0.0660 H       
  52 H52           -4.2500    -3.5504    -1.3378 H       
  53 H53           -2.6347    -4.2667    -1.5522 H       
  54 H54            9.4075     1.5240     1.6834 H       
  55 H55           10.0260     1.1647     0.0535 H       
  56 H56           11.4666     2.6522     1.2442 H       
  57 H57            6.9917    -2.4032    -1.0272 H       
  58 H58            5.2066    -2.3572    -1.3746 H       
  59 H59            4.7499    -0.0229    -2.7378 H       
  60 H60            6.3654     0.7984    -2.8965 H       
  61 H61            1.9795     3.8270    -1.9608 H       
@<TRIPOS>BOND
   1    1   18 1
   2    2    3 ar
   3    2    7 ar
   4    2   37 1
   5    3    4 ar
   6    3   21 1
   7    4    5 ar
   8    4   38 1
   9    5    6 ar
  10    5   39 1
  11    6    7 ar
  12    6   10 1
  13    7   35 1
  14    8    9 1
  15    8   11 1
  16    8   40 1
  17    8   41 1
  18    9   10 2
  19    9   14 1
  20   10   42 1
  21   11   12 1
  22   11   32 1
  23   11   34 1
  24   12   13 1
  25   12   43 1
  26   12   44 1
  27   13   14 1
  28   13   28 1
  29   14   27 2
  30   15   16 ar
  31   15   28 1
  32   15   20 ar
  33   16   17 ar
  34   16   45 1
  35   17   18 ar
  36   17   46 1
  37   18   19 ar
  38   19   20 ar
  39   19   47 1
  40   20   48 1
  41   21   22 1
  42   21   25 1
  43   22   23 2
  44   22   49 1
  45   23   24 1
  46   23   26 1
  47   24   25 2
  48   25   50 1
  49   26   51 1
  50   26   52 1
  51   26   53 1
  52   27   29 1
  53   28   29 1
  54   28   30 1
  55   30   31 1
  56   30   54 1
  57   30   55 1
  58   31   56 1
  59   32   33 1
  60   32   57 1
  61   32   58 1
  62   33   34 1
  63   34   59 1
  64   34   60 1
  65   35   36 2
  66   35   61 1
  67   36   37 1

#	End of record

