#	Name: ASD02440028
#	Creating user name:	WinNT
#	Creation time:	15. 06. 2019 20:21

#	Modifying user name:	WinNT
#	Modification time:	15. 06. 2019 20:21

#	Program:	/corina/corina34_cracker 3.40 0067  02.08.2006

@<TRIPOS>MOLECULE
ASD02440028
  45   47    0    0    0
SMALL
NO_CHARGES


@<TRIPOS>ATOM
   1 C1             0.2334     1.4401     0.2253 C.3     
   2 C2            -2.2386    -2.2350     1.5141 C.ar    
   3 N3             0.2067    -0.0245     0.2020 N.am    
   4 O4             0.6375    -0.0173     2.6320 O.2     
   5 S5             0.1238    -0.8738     1.6212 S.o2    
   6 C6             0.2535    -0.7377    -1.0768 C.3     
   7 C7            -1.5832    -1.1095     1.9890 C.ar    
   8 O8             0.6573    -2.1625     1.3494 O.2     
   9 C9            -6.7539    -2.3172     2.8098 C.2     
  10 C10           -2.2542    -0.1723     2.7459 C.ar    
  11 C11           -3.6001    -0.3518     3.0396 C.ar    
  12 C12           -4.2606    -1.4917     2.5583 C.ar    
  13 C13           -3.5742    -2.4306     1.7962 C.ar    
  14 O14           -4.4959     0.3757     3.7387 O.3     
  15 C15           -5.6985    -0.2099     3.7483 C.2     
  16 C16           -5.6511    -1.3744     3.0418 C.2     
  17 C17           -7.5629    -2.2195     1.5759 C.2     
  18 C18           -8.5034    -3.1571     1.3237 C.2     
  19 C19           -9.3220    -3.0419     0.0568 C.3     
  20 C20           -9.0367    -1.8733    -0.8612 C.2     
  21 C21           -8.0292    -0.9567    -0.4923 C.2     
  22 C22           -7.3343    -1.1065     0.6539 C.2     
  23 C23           -6.9225     0.3362     4.4372 C.3     
  24 C24           -6.9604    -0.1645     5.8825 C.3     
  25 O25           -7.0014    -3.1783     3.6329 O.2     
  26 O26           -9.6607    -1.7277    -1.8928 O.2     
  27 Br27          -7.6522     0.5126    -1.6213 Br      
  28 Br28          -9.0655    -4.6945    -0.9768 Br      
  29 H29            1.2663     1.7839     0.2795 H       
  30 H30           -0.2310     1.8264    -0.6819 H       
  31 H31           -0.3153     1.7997     1.0958 H       
  32 H32           -1.7025    -2.9589     0.9183 H       
  33 H33            1.2915    -0.9340    -1.3456 H       
  34 H34           -0.2831    -1.6820    -0.9860 H       
  35 H35           -0.2130    -0.1276    -1.8503 H       
  36 H36           -1.7335     0.7008     3.1106 H       
  37 H37           -4.0846    -3.3074     1.4259 H       
  38 H38           -8.6669    -3.9724     2.0129 H       
  39 H39          -10.3728    -2.9924     0.3424 H       
  40 H40           -6.5753    -0.3782     0.8989 H       
  41 H41           -6.8874     1.4256     4.4309 H       
  42 H42           -7.8161    -0.0015     3.9122 H       
  43 H43           -6.9247    -1.2539     5.8907 H       
  44 H44           -6.1029     0.2312     6.4267 H       
  45 H45           -7.8806     0.1724     6.3598 H       
@<TRIPOS>BOND
   1    1    3 1
   2    1   29 1
   3    1   30 1
   4    1   31 1
   5    2    7 ar
   6    2   13 ar
   7    2   32 1
   8    3    5 am
   9    3    6 1
  10    4    5 2
  11    5    7 1
  12    5    8 2
  13    6   33 1
  14    6   34 1
  15    6   35 1
  16    7   10 ar
  17    9   16 1
  18    9   17 1
  19    9   25 2
  20   10   11 ar
  21   10   36 1
  22   11   12 ar
  23   11   14 1
  24   12   13 ar
  25   12   16 1
  26   13   37 1
  27   14   15 1
  28   15   16 2
  29   15   23 1
  30   17   18 2
  31   17   22 1
  32   18   19 1
  33   18   38 1
  34   19   20 1
  35   19   28 1
  36   19   39 1
  37   20   21 1
  38   20   26 2
  39   21   22 2
  40   21   27 1
  41   22   40 1
  42   23   24 1
  43   23   41 1
  44   23   42 1
  45   24   43 1
  46   24   44 1
  47   24   45 1

#	End of record

