#	Name: ASD01412034
#	Creating user name:	WinNT
#	Creation time:	15. 06. 2019 19:19

#	Modifying user name:	WinNT
#	Modification time:	15. 06. 2019 19:19

#	Program:	/corina/corina34_cracker 3.40 0067  02.08.2006

@<TRIPOS>MOLECULE
ASD01412034
  80   84    0    0    0
SMALL
NO_CHARGES


@<TRIPOS>ATOM
   1 C1            -1.5090     2.4322     2.6820 C.ar    
   2 C2            -1.2948     1.0974     2.2824 C.ar    
   3 C3            -2.3836     0.2938     1.9140 C.ar    
   4 C4            -3.6458     0.8024     1.9422 C.ar    
   5 C5            -3.8684     2.1295     2.3380 C.ar    
   6 C6            -2.7986     2.9400     2.7121 C.ar    
   7 N7            -0.2757     2.9724     2.9828 N.pl3   
   8 C8             0.6889     2.0131     2.7811 C.2     
   9 C9             0.0998     0.8662     2.3563 C.2     
  10 C10            0.8048    -0.4233     2.0228 C.3     
  11 C11            0.2851    -1.5386     2.9321 C.3     
  12 C12            1.0009    -2.8478     2.5935 C.3     
  13 C13            0.7311    -3.2135     1.1326 C.3     
  14 C14            1.2507    -2.0982     0.2233 C.3     
  15 C15            0.5349    -0.7890     0.5619 C.3     
  16 C16           -5.2419     2.6680     2.3630 C.2     
  17 O17           -5.4379     3.8181     2.7057 O.2     
  18 N18           -6.2793     1.8851     2.0060 N.am    
  19 C19           -7.6430     2.4198     2.0308 C.3     
  20 C20           -8.6098     1.3508     1.5909 C.2     
  21 C21           -7.9896     2.8672     3.4523 C.3     
  22 C22           -7.7391     3.6161     1.0819 C.3     
  23 C23           -9.1214    -0.5598     0.2759 C.ar    
  24 O24           -9.7136     1.2888     2.0897 O.2     
  25 C25          -10.4905    -0.3162     0.2191 C.ar    
  26 C26          -11.3557    -1.3214    -0.1479 C.ar    
  27 C27          -10.8567    -2.5906    -0.4648 C.ar    
  28 C28           -9.4786    -2.8309    -0.4067 C.ar    
  29 C29           -8.6209    -1.8198    -0.0383 C.ar    
  30 C30          -11.7766    -3.6673    -0.8567 C.2     
  31 C31          -12.8246    -3.3992    -1.6662 C.2     
  32 N32           -8.2479     0.4635     0.6432 N.am    
  33 C33           -0.0334     4.3425     3.4412 C.3     
  34 C34            2.1392     2.2012     2.9935 C.ar    
  35 N35            3.0060     1.5055     2.2656 N.ar    
  36 C36            4.3055     1.6421     2.4215 C.ar    
  37 C37            4.8208     2.5278     3.3622 C.ar    
  38 C38            3.9431     3.2762     4.1456 C.ar    
  39 C39            2.5844     3.1123     3.9526 C.ar    
  40 N40            6.2004     2.6654     3.5204 N.pl3   
  41 C41          -12.8428    -2.2051    -2.4303 C.2     
  42 O42          -11.8519    -1.5014    -2.4828 O.2     
  43 O43          -13.9592    -1.8493    -3.0994 O.3     
  44 H44           -2.2205    -0.7288     1.6074 H       
  45 H45           -4.4814     0.1801     1.6577 H       
  46 H46           -2.9724     3.9616     3.0164 H       
  47 H47            1.8772    -0.3008     2.1745 H       
  48 H48            0.4774    -1.2781     3.9729 H       
  49 H49           -0.7873    -1.6611     2.7804 H       
  50 H50            2.0733    -2.7253     2.7453 H       
  51 H51            0.6307    -3.6424     3.2413 H       
  52 H52            1.2410    -4.1462     0.8914 H       
  53 H53           -0.3414    -3.3360     0.9808 H       
  54 H54            2.3231    -1.9757     0.3750 H       
  55 H55            1.0585    -2.3587    -0.8175 H       
  56 H56           -0.5375    -0.9115     0.4101 H       
  57 H57            0.9052     0.0056    -0.0860 H       
  58 H58           -6.1230     0.9677     1.7327 H       
  59 H59           -7.2904     3.6404     3.7705 H       
  60 H60           -9.0043     3.2650     3.4708 H       
  61 H61           -7.9212     2.0149     4.1283 H       
  62 H62           -7.4922     3.2974     0.0692 H       
  63 H63           -8.7538     4.0140     1.1004 H       
  64 H64           -7.0399     4.3894     1.4001 H       
  65 H65          -10.8745     0.6631     0.4637 H       
  66 H66          -12.4180    -1.1317    -0.1910 H       
  67 H67           -9.0893    -3.8085    -0.6500 H       
  68 H68           -7.5577    -2.0042     0.0065 H       
  69 H69          -11.6150    -4.6730    -0.4977 H       
  70 H70          -13.6484    -4.0945    -1.7312 H       
  71 H71           -7.3798     0.5366     0.2165 H       
  72 H72           -0.0635     4.3719     4.5304 H       
  73 H73            0.9460     4.6734     3.0958 H       
  74 H74           -0.8024     5.0017     3.0386 H       
  75 H75            4.9801     1.0593     1.8118 H       
  76 H76            4.3164     3.9708     4.8836 H       
  77 H77            1.8762     3.6759     4.5419 H       
  78 H78            6.8060     2.1418     2.9727 H       
  79 H79            6.5538     3.2846     4.1781 H       
  80 H80          -13.8757    -1.0210    -3.5913 H       
@<TRIPOS>BOND
   1    1    2 ar
   2    1    7 1
   3    1    6 ar
   4    2    3 ar
   5    2    9 1
   6    3    4 ar
   7    3   44 1
   8    4    5 ar
   9    4   45 1
  10    5    6 ar
  11    5   16 1
  12    6   46 1
  13    7    8 1
  14    7   33 1
  15    8    9 2
  16    8   34 1
  17    9   10 1
  18   10   11 1
  19   10   15 1
  20   10   47 1
  21   11   12 1
  22   11   48 1
  23   11   49 1
  24   12   13 1
  25   12   50 1
  26   12   51 1
  27   13   14 1
  28   13   52 1
  29   13   53 1
  30   14   15 1
  31   14   54 1
  32   14   55 1
  33   15   56 1
  34   15   57 1
  35   16   17 2
  36   16   18 am
  37   18   19 1
  38   18   58 1
  39   19   20 1
  40   19   21 1
  41   19   22 1
  42   20   24 2
  43   20   32 am
  44   21   59 1
  45   21   60 1
  46   21   61 1
  47   22   62 1
  48   22   63 1
  49   22   64 1
  50   23   25 ar
  51   23   29 ar
  52   23   32 1
  53   25   26 ar
  54   25   65 1
  55   26   27 ar
  56   26   66 1
  57   27   28 ar
  58   27   30 1
  59   28   29 ar
  60   28   67 1
  61   29   68 1
  62   30   31 2
  63   30   69 1
  64   31   41 1
  65   31   70 1
  66   32   71 1
  67   33   72 1
  68   33   73 1
  69   33   74 1
  70   34   35 ar
  71   34   39 ar
  72   35   36 ar
  73   36   37 ar
  74   36   75 1
  75   37   38 ar
  76   37   40 1
  77   38   39 ar
  78   38   76 1
  79   39   77 1
  80   40   78 1
  81   40   79 1
  82   41   42 2
  83   41   43 1
  84   43   80 1

#	End of record

