#	Name: ASD01903257
#	Creating user name:	WinNT
#	Creation time:	15. 06. 2019 19:54

#	Modifying user name:	WinNT
#	Modification time:	15. 06. 2019 19:54

#	Program:	/corina/corina34_cracker 3.40 0067  02.08.2006

@<TRIPOS>MOLECULE
ASD01903257
  38   40    0    0    0
SMALL
NO_CHARGES


@<TRIPOS>ATOM
   1 S1            -0.0211     1.7049     0.0114 S.3     
   2 C2             0.0021    -0.0041     0.0020 C.2     
   3 N3             1.2221    -0.4387    -0.0120 N.2     
   4 C4             2.1845     0.4751    -0.0162 C.2     
   5 C5             1.7399     1.7439    -0.0052 C.2     
   6 N6            -1.1265    -0.8116     0.0089 N.pl3   
   7 C7            -2.3885    -0.2388     0.0239 C.ar    
   8 C8             3.6284     0.1262    -0.0314 C.2     
   9 C9             4.1700    -1.1735    -0.0436 C.2     
  10 N10            5.4730    -1.0711    -0.0550 N.2     
  11 N11            5.8122     0.2874    -0.0506 N.pl3   
  12 C12            4.6699     1.0066    -0.0421 C.2     
  13 N13           -3.4551    -1.0244     0.0303 N.ar    
  14 C14           -4.6738    -0.5100     0.0447 C.ar    
  15 C15           -4.8260     0.8676     0.0531 C.ar    
  16 C16           -3.6885     1.6601     0.0460 C.ar    
  17 N17           -2.4993     1.0815     0.0371 N.ar    
  18 C18            3.3839    -2.4592    -0.0430 C.3     
  19 C19           -5.8818    -1.4109     0.0513 C.3     
  20 C20            3.1041    -2.8866    -1.4852 C.3     
  21 O21            2.3587    -4.1057    -1.4847 O.3     
  22 C22            2.0430    -4.5946    -2.7899 C.3     
  23 H23            2.3548     2.6317    -0.0066 H       
  24 H24           -1.0321    -1.7770     0.0031 H       
  25 H25            6.7122     0.6491    -0.0566 H       
  26 H26            4.5944     2.0839    -0.0370 H       
  27 H27           -5.8094     1.3139     0.0645 H       
  28 H28           -3.7725     2.7368     0.0519 H       
  29 H29            3.9585    -3.2362     0.4612 H       
  30 H30            2.4400    -2.3077     0.4806 H       
  31 H31           -6.1633    -1.6336     1.0805 H       
  32 H32           -6.7099    -0.9119    -0.4520 H       
  33 H33           -5.6460    -2.3387    -0.4697 H       
  34 H34            2.5295    -2.1096    -1.9895 H       
  35 H35            4.0480    -3.0380    -2.0089 H       
  36 H36            1.4464    -3.8530    -3.3211 H       
  37 H37            2.9649    -4.7815    -3.3406 H       
  38 H38            1.4770    -5.5221    -2.7034 H       
@<TRIPOS>BOND
   1    1    2 1
   2    1    5 1
   3    2    3 2
   4    2    6 1
   5    3    4 1
   6    4    5 2
   7    4    8 1
   8    5   23 1
   9    6    7 1
  10    6   24 1
  11    7   13 ar
  12    7   17 ar
  13    8    9 1
  14    8   12 2
  15    9   10 2
  16    9   18 1
  17   10   11 1
  18   11   12 1
  19   11   25 1
  20   12   26 1
  21   13   14 ar
  22   14   15 ar
  23   14   19 1
  24   15   16 ar
  25   15   27 1
  26   16   17 ar
  27   16   28 1
  28   18   20 1
  29   18   29 1
  30   18   30 1
  31   19   31 1
  32   19   32 1
  33   19   33 1
  34   20   21 1
  35   20   34 1
  36   20   35 1
  37   21   22 1
  38   22   36 1
  39   22   37 1
  40   22   38 1

#	End of record

