#	Name: ASD01913938
#	Creating user name:	WinNT
#	Creation time:	15. 06. 2019 20:02

#	Modifying user name:	WinNT
#	Modification time:	15. 06. 2019 20:02

#	Program:	/corina/corina34_cracker 3.40 0067  02.08.2006

@<TRIPOS>MOLECULE
ASD01913938
  41   43    0    0    0
SMALL
NO_CHARGES


@<TRIPOS>ATOM
   1 C1            -0.0174     1.4278     0.0119 C.ar    
   2 C2             0.0020    -0.0041     0.0040 C.1     
   3 C3             0.0180    -1.1780    -0.0024 C.1     
   4 C4             0.0374    -2.6098    -0.0103 C.ar    
   5 N5            -1.1061    -3.2936     0.0368 N.ar    
   6 C6             0.1296    -5.2904    -0.0285 C.ar    
   7 N7             1.2699    -4.6126    -0.0809 N.ar    
   8 C8             1.2552    -3.2933    -0.0733 C.ar    
   9 C9            -1.0855    -4.6115     0.0289 C.ar    
  10 C10           -1.2337     2.1131     0.0748 C.ar    
  11 C11           -0.0551     4.1972     0.0271 C.ar    
  12 N12            0.1479    -6.6833    -0.0371 N.am    
  13 C13            1.1801     2.1466    -0.0374 C.ar    
  14 C14           -1.2446     3.4922     0.0820 C.ar    
  15 C15            1.1534     3.5254    -0.0295 C.ar    
  16 C16            0.2696    -7.3460     1.1227 C.2     
  17 N17            0.3054    -8.6852     1.1898 N.am    
  18 C18            0.2000    -9.5109    -0.0144 C.3     
  19 C19            0.7681    -8.7349    -1.2074 C.3     
  20 C20            0.0279    -7.3941    -1.3111 C.3     
  21 C21            0.9954   -10.8032     0.1806 C.3     
  22 C22           -1.2693    -9.8478    -0.2764 C.3     
  23 O23            0.3511    -6.7075     2.1542 O.2     
  24 H24            2.1830    -2.7421    -0.1161 H       
  25 H25           -2.0117    -5.1656     0.0675 H       
  26 H26           -2.1628     1.5642     0.1174 H       
  27 H27           -0.0697     5.2771     0.0331 H       
  28 H28            2.1240     1.6236    -0.0813 H       
  29 H29           -2.1840     4.0233     0.1257 H       
  30 H30            2.0780     4.0823    -0.0680 H       
  31 H31            0.4034    -9.1153     2.0537 H       
  32 H32            1.8329    -8.5580    -1.0555 H       
  33 H33            0.6163    -9.3075    -2.1223 H       
  34 H34           -1.0231    -7.5748    -1.5366 H       
  35 H35            0.4733    -6.7925    -2.1035 H       
  36 H36            0.5943   -11.3517     1.0329 H       
  37 H37            0.9164   -11.4173    -0.7165 H       
  38 H38            2.0423   -10.5614     0.3642 H       
  39 H39           -1.8337    -8.9261    -0.4178 H       
  40 H40           -1.3467   -10.4626    -1.1731 H       
  41 H41           -1.6740   -10.3947     0.5752 H       
@<TRIPOS>BOND
   1    1    2 1
   2    1   13 ar
   3    1   10 ar
   4    2    3 3
   5    3    4 1
   6    4    5 ar
   7    4    8 ar
   8    5    9 ar
   9    6    7 ar
  10    6   12 1
  11    6    9 ar
  12    7    8 ar
  13    8   24 1
  14    9   25 1
  15   10   14 ar
  16   10   26 1
  17   11   14 ar
  18   11   15 ar
  19   11   27 1
  20   12   16 am
  21   12   20 1
  22   13   15 ar
  23   13   28 1
  24   14   29 1
  25   15   30 1
  26   16   17 am
  27   16   23 2
  28   17   18 1
  29   17   31 1
  30   18   19 1
  31   18   21 1
  32   18   22 1
  33   19   20 1
  34   19   32 1
  35   19   33 1
  36   20   34 1
  37   20   35 1
  38   21   36 1
  39   21   37 1
  40   21   38 1
  41   22   39 1
  42   22   40 1
  43   22   41 1

#	End of record

