#	Name: ASD02030677
#	Creating user name:	WinNT
#	Creation time:	15. 06. 2019 20:15

#	Modifying user name:	WinNT
#	Modification time:	15. 06. 2019 20:15

#	Program:	/corina/corina34_cracker 3.40 0067  02.08.2006

@<TRIPOS>MOLECULE
ASD02030677
  55   57    0    0    0
SMALL
NO_CHARGES


@<TRIPOS>ATOM
   1 N1             0.0195     1.2157     0.6909 N.am    
   2 C2             0.1492    -0.1254     0.6562 C.2     
   3 C3            -1.0518    -0.9833     0.6566 C.ar    
   4 O4             1.2558    -0.6285     0.6246 O.2     
   5 C5            -0.9194    -2.3739     0.6206 C.ar    
   6 C6            -2.0427    -3.1709     0.6216 C.ar    
   7 C7            -3.3064    -2.5939     0.6582 C.ar    
   8 C8            -3.4424    -1.2113     0.6936 C.ar    
   9 C9            -2.3242    -0.4073     0.6987 C.ar    
  10 O10           -4.4112    -3.3831     0.6590 O.3     
  11 C11           -4.6037    -4.1646     1.7392 C.2     
  12 N12           -5.6221    -5.0472     1.7595 N.am    
  13 O13           -3.8593    -4.0738     2.6952 O.2     
  14 C14            1.1538     2.0247     0.7638 C.ar    
  15 C15            2.3629     1.5724     0.2801 C.ar    
  16 C16            3.5001     2.3714     0.3480 C.ar    
  17 C17            3.4515     3.6189     0.8918 C.ar    
  18 C18            2.2385     4.1178     1.3958 C.ar    
  19 C19            1.0726     3.3156     1.3280 C.ar    
  20 C20            2.1583     5.4019     1.9623 C.ar    
  21 C21            0.9670     5.8538     2.4407 C.ar    
  22 C22           -0.1780     5.0620     2.3778 C.ar    
  23 C23           -0.1385     3.8155     1.8316 C.ar    
  24 C24           -6.5197    -5.1567     0.6068 C.3     
  25 C25           -7.1255    -3.7856     0.3002 C.3     
  26 C26           -5.7314    -5.6493    -0.6084 C.3     
  27 C27           -5.8315    -5.8971     2.9343 C.3     
  28 C28           -7.1667    -5.5401     3.5905 C.3     
  29 C29           -5.8509    -7.3654     2.5045 C.3     
  30 H30           -0.8624     1.6185     0.6612 H       
  31 H31            0.0623    -2.8231     0.5918 H       
  32 H32           -1.9412    -4.2457     0.5935 H       
  33 H33           -4.4263    -0.7668     0.7216 H       
  34 H34           -2.4307     0.6670     0.7262 H       
  35 H35            2.4283     0.5866    -0.1562 H       
  36 H36            4.4368     1.9959    -0.0367 H       
  37 H37            4.3456     4.2228     0.9394 H       
  38 H38            3.0376     6.0264     2.0180 H       
  39 H39            0.9082     6.8406     2.8757 H       
  40 H40           -1.1111     5.4442     2.7646 H       
  41 H41           -1.0338     3.2129     1.7892 H       
  42 H42           -7.3175    -5.8639     0.8335 H       
  43 H43           -6.3376    -3.1034    -0.0192 H       
  44 H44           -7.8647    -3.8846    -0.4947 H       
  45 H45           -7.6057    -3.3920     1.1960 H       
  46 H46           -5.3736    -6.6621    -0.4232 H       
  47 H47           -6.3778    -5.6471    -1.4860 H       
  48 H48           -4.8811    -4.9896    -0.7817 H       
  49 H49           -5.0223    -5.7377     3.6469 H       
  50 H50           -7.1215    -4.5213     3.9753 H       
  51 H51           -7.9656    -5.6148     2.8528 H       
  52 H52           -7.3641    -6.2299     4.4111 H       
  53 H53           -4.8708    -7.6435     2.1169 H       
  54 H54           -6.0933    -7.9920     3.3628 H       
  55 H55           -6.6023    -7.5067     1.7277 H       
@<TRIPOS>BOND
   1    1    2 am
   2    1   14 1
   3    1   30 1
   4    2    3 1
   5    2    4 2
   6    3    5 ar
   7    3    9 ar
   8    5    6 ar
   9    5   31 1
  10    6    7 ar
  11    6   32 1
  12    7    8 ar
  13    7   10 1
  14    8    9 ar
  15    8   33 1
  16    9   34 1
  17   10   11 1
  18   11   12 am
  19   11   13 2
  20   12   24 1
  21   12   27 1
  22   14   15 ar
  23   14   19 ar
  24   15   16 ar
  25   15   35 1
  26   16   17 ar
  27   16   36 1
  28   17   18 ar
  29   17   37 1
  30   18   19 ar
  31   18   20 ar
  32   19   23 ar
  33   20   21 ar
  34   20   38 1
  35   21   22 ar
  36   21   39 1
  37   22   23 ar
  38   22   40 1
  39   23   41 1
  40   24   25 1
  41   24   26 1
  42   24   42 1
  43   25   43 1
  44   25   44 1
  45   25   45 1
  46   26   46 1
  47   26   47 1
  48   26   48 1
  49   27   28 1
  50   27   29 1
  51   27   49 1
  52   28   50 1
  53   28   51 1
  54   28   52 1
  55   29   53 1
  56   29   54 1
  57   29   55 1

#	End of record

