#	Name: ASD01940109
#	Creating user name:	WinNT
#	Creation time:	15. 06. 2019 20:11

#	Modifying user name:	WinNT
#	Modification time:	15. 06. 2019 20:11

#	Program:	/corina/corina34_cracker 3.40 0067  02.08.2006

@<TRIPOS>MOLECULE
ASD01940109
  33   34    0    0    0
SMALL
NO_CHARGES


@<TRIPOS>ATOM
   1 I1             2.7949    -4.5914    -1.6166 I       
   2 F2             1.9017     1.5996     2.2861 F       
   3 C3             1.0632     2.1516     1.3819 C.ar    
   4 C4             1.3880     2.1343     0.0320 C.ar    
   5 C5             0.5195     2.7047    -0.8972 C.ar    
   6 C6            -0.6645     3.2866    -0.4696 C.ar    
   7 C7            -0.9825     3.3013     0.8760 C.ar    
   8 C8            -0.1243     2.7304     1.8002 C.ar    
   9 N9             2.5861     1.5453    -0.3952 N.pl3   
  10 N10            0.8423     2.6905    -2.2608 N.am    
  11 C11            2.6331     0.1754    -0.6675 C.ar    
  12 C12            1.4779    -0.5908    -0.5839 C.ar    
  13 C13            1.5274    -1.9446    -0.8542 C.ar    
  14 C14            2.7258    -2.5378    -1.2078 C.ar    
  15 C15            3.8792    -1.7780    -1.2919 C.ar    
  16 C16            3.8356    -0.4225    -1.0285 C.ar    
  17 Cl17           5.2829     0.5304    -1.1340 Cl      
  18 F18           -0.4425     2.7426     3.1132 F       
  19 S19            0.4258     3.9718    -3.2237 S.o2    
  20 O20            0.9913     3.6577    -4.4889 O.2     
  21 O21           -0.9806     4.0911    -3.0591 O.2     
  22 C22            1.2764     5.3914    -2.4810 C.3     
  23 O23            0.9870     6.5690    -3.2370 O.3     
  24 H24           -1.3386     3.7289    -1.1882 H       
  25 H25           -1.9050     3.7554     1.2064 H       
  26 H26            3.3826     2.0886    -0.5017 H       
  27 H27            1.3098     1.9302    -2.6406 H       
  28 H28            0.5417    -0.1287    -0.3075 H       
  29 H29            0.6292    -2.5408    -0.7888 H       
  30 H30            4.8135    -2.2443    -1.5676 H       
  31 H31            0.9329     5.5248    -1.4551 H       
  32 H32            2.3517     5.2129    -2.4838 H       
  33 H33            1.4099     7.3690    -2.8963 H       
@<TRIPOS>BOND
   1    1   14 1
   2    2    3 1
   3    3    4 ar
   4    3    8 ar
   5    4    5 ar
   6    4    9 1
   7    5    6 ar
   8    5   10 1
   9    6    7 ar
  10    6   24 1
  11    7    8 ar
  12    7   25 1
  13    8   18 1
  14    9   11 1
  15    9   26 1
  16   10   19 am
  17   10   27 1
  18   11   12 ar
  19   11   16 ar
  20   12   13 ar
  21   12   28 1
  22   13   14 ar
  23   13   29 1
  24   14   15 ar
  25   15   16 ar
  26   15   30 1
  27   16   17 1
  28   19   20 2
  29   19   21 2
  30   19   22 1
  31   22   23 1
  32   22   31 1
  33   22   32 1
  34   23   33 1

#	End of record

