#	Name: ASD01916115
#	Creating user name:	WinNT
#	Creation time:	15. 06. 2019 20:06

#	Modifying user name:	WinNT
#	Modification time:	15. 06. 2019 20:06

#	Program:	/corina/corina34_cracker 3.40 0067  02.08.2006

@<TRIPOS>MOLECULE
ASD01916115
  39   41    0    0    0
SMALL
NO_CHARGES


@<TRIPOS>ATOM
   1 C1            -0.0170     1.3991     0.0096 C.ar    
   2 C2             0.0021    -0.0041     0.0081 C.ar    
   3 C3            -1.2034    -0.6760     0.0155 C.ar    
   4 C4            -2.3890     0.0534     0.0242 C.ar    
   5 N5            -3.6086    -0.6195     0.0322 N.am    
   6 C6             1.2068     2.1427     0.0016 C.1     
   7 C7             2.2101     2.7523    -0.0050 C.1     
   8 C8             3.4339     3.4959    -0.0130 C.ar    
   9 C9             3.4066     4.8925    -0.0114 C.ar    
  10 C10            4.5912     5.6031    -0.0192 C.ar    
  11 N11           -2.3743     1.3775     0.0254 N.ar    
  12 C12           -1.2474     2.0592     0.0131 C.ar    
  13 C13            4.6633     2.8268    -0.0166 C.ar    
  14 C14            5.8046     4.9338    -0.0290 C.ar    
  15 N15           -3.7218    -1.9745    -0.0668 N.3     
  16 C16           -5.0682    -2.3546     0.4202 C.3     
  17 C17           -5.8805    -1.0649     0.1498 C.3     
  18 C18           -4.7984    -0.0004     0.1443 C.2     
  19 C19            5.8396     3.5508    -0.0243 C.ar    
  20 O20           -4.9752     1.1971     0.2199 O.2     
  21 C21           -5.6277    -3.5316    -0.3814 C.3     
  22 C22           -5.0378    -2.6787     1.9151 C.3     
  23 F23            4.6993     1.4763    -0.0121 F       
  24 F24            4.5668     6.9539    -0.0177 F       
  25 H25            0.9370    -0.5448     0.0009 H       
  26 H26           -1.2266    -1.7557     0.0143 H       
  27 H27            2.4616     5.4155    -0.0045 H       
  28 H28           -1.2752     3.1388     0.0145 H       
  29 H29            6.7276     5.4946    -0.0354 H       
  30 H30           -3.5816    -2.2805    -1.0180 H       
  31 H31           -6.3827    -1.1181    -0.8161 H       
  32 H32           -6.5965    -0.8822     0.9511 H       
  33 H33            6.7890     3.0360    -0.0271 H       
  34 H34           -4.9770    -4.3973    -0.2579 H       
  35 H35           -6.6274    -3.7741    -0.0210 H       
  36 H36           -5.6773    -3.2619    -1.4363 H       
  37 H37           -4.6746    -1.8120     2.4675 H       
  38 H38           -6.0433    -2.9296     2.2530 H       
  39 H39           -4.3740    -3.5253     2.0900 H       
@<TRIPOS>BOND
   1    1    2 ar
   2    1    6 1
   3    1   12 ar
   4    2    3 ar
   5    2   25 1
   6    3    4 ar
   7    3   26 1
   8    4   11 ar
   9    4    5 1
  10    5   15 1
  11    5   18 am
  12    6    7 3
  13    7    8 1
  14    8    9 ar
  15    8   13 ar
  16    9   10 ar
  17    9   27 1
  18   10   24 1
  19   10   14 ar
  20   11   12 ar
  21   12   28 1
  22   13   19 ar
  23   13   23 1
  24   14   19 ar
  25   14   29 1
  26   15   16 1
  27   15   30 1
  28   16   17 1
  29   16   22 1
  30   16   21 1
  31   17   18 1
  32   17   31 1
  33   17   32 1
  34   18   20 2
  35   19   33 1
  36   21   34 1
  37   21   35 1
  38   21   36 1
  39   22   37 1
  40   22   38 1
  41   22   39 1

#	End of record

