#	Name: ASD01882693
#	Creating user name:	WinNT
#	Creation time:	15. 06. 2019 19:45

#	Modifying user name:	WinNT
#	Modification time:	15. 06. 2019 19:45

#	Program:	/corina/corina34_cracker 3.40 0067  02.08.2006

@<TRIPOS>MOLECULE
ASD01882693
  59   63    0    0    0
SMALL
NO_CHARGES


@<TRIPOS>ATOM
   1 N1            -0.0159     1.3196     0.0093 N.ar    
   2 C2             0.0021    -0.0041     0.0020 C.ar    
   3 C3             1.2037    -0.7040    -0.0128 C.ar    
   4 C4             2.3966    -0.0010    -0.0204 C.ar    
   5 C5             1.1035     2.0275     0.0024 C.ar    
   6 N6             1.3603     3.3925     0.0065 N.am    
   7 C7             2.3439     1.3865    -0.0129 C.ar    
   8 N8             3.3170     2.3850    -0.0170 N.am    
   9 C9             2.6931     3.5785    -0.0056 C.2     
  10 C10            0.3492     4.4526     0.0216 C.3     
  11 C11            4.7664     2.1727    -0.0307 C.3     
  12 C12            5.2583     2.1053    -1.4779 C.3     
  13 C13            4.9285     3.4185    -2.1903 C.3     
  14 C14            6.7721     1.8835    -1.4922 C.3     
  15 C15            4.5663     0.9464    -2.1983 C.3     
  16 N16           -1.2000    -0.7059     0.0097 N.3     
  17 O17            3.2500     4.6605    -0.0064 O.2     
  18 C18           -3.6436    -0.5997    -0.0096 C.3     
  19 N19           -3.6985    -1.4851     1.1612 N.3     
  20 C20           -2.4944    -1.3417     1.9910 C.3     
  21 C21           -1.2564    -1.6410     1.1414 C.3     
  22 C22           -2.3466     0.2134     0.0256 C.3     
  23 C23           -2.4079     0.0971     2.5116 C.3     
  24 C24           -2.3104     1.0460     1.3116 C.3     
  25 C25           -3.8834    -2.8023     0.7787 C.ar    
  26 N26           -3.0265    -3.3568    -0.0661 N.ar    
  27 C27           -3.1744    -4.6134    -0.4517 C.ar    
  28 C28           -4.2409    -5.3502     0.0389 C.ar    
  29 C29           -5.1184    -4.7392     0.9209 C.ar    
  30 N30           -4.9100    -3.4805     1.2702 N.ar    
  31 H31            1.2064    -1.7840    -0.0179 H       
  32 H32            3.3443    -0.5188    -0.0315 H       
  33 H33            0.1086     4.7105     1.0529 H       
  34 H34            0.7374     5.3323    -0.4918 H       
  35 H35           -0.5506     4.1038    -0.4851 H       
  36 H36            5.2595     2.9983     0.4825 H       
  37 H37            5.0015     1.2371     0.4769 H       
  38 H38            5.4215     4.2441    -1.6771 H       
  39 H39            5.2789     3.3705    -3.2214 H       
  40 H40            3.8500     3.5764    -2.1801 H       
  41 H41            7.0071     0.9480    -0.9847 H       
  42 H42            7.1225     1.8355    -2.5233 H       
  43 H43            7.2651     2.7091    -0.9790 H       
  44 H44            3.4878     1.1044    -2.1881 H       
  45 H45            4.9167     0.8984    -3.2293 H       
  46 H46            4.8013     0.0108    -1.6908 H       
  47 H47           -3.6722    -1.1988    -0.9197 H       
  48 H48           -4.4975     0.0775     0.0066 H       
  49 H49           -2.5414    -2.0391     2.8274 H       
  50 H50           -1.3120    -2.6627     0.7658 H       
  51 H51           -0.3606    -1.5268     1.7518 H       
  52 H52           -2.3020     0.8687    -0.8443 H       
  53 H53           -3.3008     0.3309     3.0914 H       
  54 H54           -1.5226     0.2071     3.1379 H       
  55 H55           -1.3748     1.6030     1.3607 H       
  56 H56           -3.1523     1.7382     1.3232 H       
  57 H57           -2.4728    -5.0598    -1.1409 H       
  58 H58           -4.3854    -6.3779    -0.2598 H       
  59 H59           -5.9597    -5.2854     1.3212 H       
@<TRIPOS>BOND
   1    1    2 ar
   2    1    5 ar
   3    2    3 ar
   4    2   16 1
   5    3    4 ar
   6    3   31 1
   7    4    7 ar
   8    4   32 1
   9    5    7 ar
  10    5    6 1
  11    6    9 am
  12    6   10 1
  13    7    8 1
  14    8    9 am
  15    8   11 1
  16    9   17 2
  17   10   33 1
  18   10   34 1
  19   10   35 1
  20   11   12 1
  21   11   36 1
  22   11   37 1
  23   12   13 1
  24   12   14 1
  25   12   15 1
  26   13   38 1
  27   13   39 1
  28   13   40 1
  29   14   41 1
  30   14   42 1
  31   14   43 1
  32   15   44 1
  33   15   45 1
  34   15   46 1
  35   16   22 1
  36   16   21 1
  37   18   19 1
  38   18   22 1
  39   18   47 1
  40   18   48 1
  41   19   20 1
  42   19   25 1
  43   20   21 1
  44   20   23 1
  45   20   49 1
  46   21   50 1
  47   21   51 1
  48   22   24 1
  49   22   52 1
  50   23   24 1
  51   23   53 1
  52   23   54 1
  53   24   55 1
  54   24   56 1
  55   25   26 ar
  56   25   30 ar
  57   26   27 ar
  58   27   28 ar
  59   27   57 1
  60   28   29 ar
  61   28   58 1
  62   29   30 ar
  63   29   59 1

#	End of record

