#	Name: ASD04880176
#	Creating user name:	WinNT
#	Creation time:	15. 06. 2019 20:52

#	Modifying user name:	WinNT
#	Modification time:	15. 06. 2019 20:52

#	Program:	/corina/corina34_cracker 3.40 0067  02.08.2006

@<TRIPOS>MOLECULE
ASD04880176
  43   44    0    0    0
SMALL
NO_CHARGES


@<TRIPOS>ATOM
   1 C1            -0.0144     1.2089     0.0087 C.2     
   2 O2             0.0021    -0.0041     0.0020 O.2     
   3 C3             1.2803     1.9801     0.0005 C.3     
   4 C4             2.4566     1.0018    -0.0160 C.3     
   5 N5            -1.1906     1.8669     0.0178 N.am    
   6 N6            -1.3446     3.2517     0.0256 N.2     
   7 C7            -2.5714     3.6449     0.0329 C.2     
   8 C8            -3.4874     2.4419     0.0307 C.3     
   9 C9            -2.5220     1.2401     0.0148 C.3     
  10 C10           -3.0141     5.0510     0.0425 C.ar    
  11 C11           -2.0711     6.0821     0.0437 C.ar    
  12 C12           -2.4917     7.3989     0.0522 C.ar    
  13 C13           -3.8529     7.6955     0.0600 C.ar    
  14 C14           -4.7894     6.6720     0.0589 C.ar    
  15 C15           -4.3776     5.3561     0.0446 C.ar    
  16 O16           -4.2644     8.9910     0.0693 O.3     
  17 C17           -5.6743     9.2238     0.0770 C.3     
  18 O18           -1.5766     8.4049     0.0533 O.3     
  19 C19           -0.1982     8.0281     0.0455 C.3     
  20 C20            2.4464     0.2140    -1.3276 C.3     
  21 C21            3.7687     1.7799     0.1014 C.3     
  22 H22            1.3211     2.6123    -0.8866 H       
  23 H23            1.3381     2.6027     0.8933 H       
  24 H24            2.3670     0.3118     0.8230 H       
  25 H25           -4.1041     2.4292     0.9294 H       
  26 H26           -4.1118     2.4384    -0.8627 H       
  27 H27           -2.6634     0.6442    -0.8868 H       
  28 H28           -2.6597     0.6278     0.9060 H       
  29 H29           -1.0162     5.8509     0.0383 H       
  30 H30           -5.8437     6.9065     0.0650 H       
  31 H31           -5.1088     4.5613     0.0392 H       
  32 H32           -5.8653    10.2970     0.0840 H       
  33 H33           -6.1205     8.7812    -0.8135 H       
  34 H34           -6.1124     8.7710     0.9664 H       
  35 H35            0.0130     7.4411    -0.8484 H       
  36 H36            0.4233     8.9235     0.0473 H       
  37 H37            0.0206     7.4321     0.9315 H       
  38 H38            1.5116    -0.3403    -1.4112 H       
  39 H39            2.5359     0.9041    -2.1666 H       
  40 H40            3.2843    -0.4829    -1.3393 H       
  41 H41            3.7760     2.3411     1.0357 H       
  42 H42            4.6067     1.0829     0.0896 H       
  43 H43            3.8583     2.4699    -0.7376 H       
@<TRIPOS>BOND
   1    1    2 2
   2    1    3 1
   3    1    5 am
   4    3    4 1
   5    3   22 1
   6    3   23 1
   7    4   20 1
   8    4   21 1
   9    4   24 1
  10    5    6 1
  11    5    9 1
  12    6    7 2
  13    7    8 1
  14    7   10 1
  15    8    9 1
  16    8   25 1
  17    8   26 1
  18    9   27 1
  19    9   28 1
  20   10   11 ar
  21   10   15 ar
  22   11   12 ar
  23   11   29 1
  24   12   13 ar
  25   12   18 1
  26   13   14 ar
  27   13   16 1
  28   14   15 ar
  29   14   30 1
  30   15   31 1
  31   16   17 1
  32   17   32 1
  33   17   33 1
  34   17   34 1
  35   18   19 1
  36   19   35 1
  37   19   36 1
  38   19   37 1
  39   20   38 1
  40   20   39 1
  41   20   40 1
  42   21   41 1
  43   21   42 1
  44   21   43 1

#	End of record

