#	Name: ASD00310188
#	Creating user name:	WinNT
#	Creation time:	15. 06. 2019 18:33

#	Modifying user name:	WinNT
#	Modification time:	15. 06. 2019 18:33

#	Program:	/corina/corina34_cracker 3.40 0067  02.08.2006

@<TRIPOS>MOLECULE
ASD00310188
  48   51    0    0    0
SMALL
NO_CHARGES


@<TRIPOS>ATOM
   1 N1            -0.0163     1.3498     0.0095 N.pl3   
   2 C2             0.0021    -0.0041     0.0020 C.2     
   3 C3             1.2923    -0.4484    -0.0127 C.2     
   4 C4             2.1477     0.7537    -0.0144 C.ar    
   5 C5             3.5235     0.9578    -0.0260 C.ar    
   6 C6             4.0248     2.2535    -0.0235 C.ar    
   7 C7             3.1472     3.3435    -0.0088 C.ar    
   8 C8             1.7857     3.1434     0.0028 C.ar    
   9 C9             1.2700     1.8500    -0.0001 C.ar    
  10 C10            1.7402    -1.8454    -0.0240 C.2     
  11 O11            2.9286    -2.1028    -0.0364 O.2     
  12 O12            0.8341    -2.8441    -0.0208 O.3     
  13 C13            6.1231     3.0880     1.0544 C.ar    
  14 C14            5.4901     2.4815    -0.0358 C.ar    
  15 C15            6.2585     2.0934    -1.1362 C.ar    
  16 C16            7.6211     2.3256    -1.1032 C.ar    
  17 C17            8.1820     2.9336     0.0149 C.ar    
  18 N18            7.4292     3.2912     1.0453 N.ar    
  19 N19            9.5509     3.1688     0.0523 N.3     
  20 C20            9.9411     3.8178     1.3175 C.3     
  21 C21           11.0091     2.9225     1.9802 C.3     
  22 C22           11.5758     2.1116     0.7851 C.3     
  23 C23           10.3092     1.9069    -0.0829 C.3     
  24 O24           12.0326     3.7178     2.5818 O.3     
  25 C25           12.6420     3.1135     3.7244 C.3     
  26 O26            5.3898     3.4754     2.1274 O.3     
  27 C27            6.0954     4.0886     3.2082 C.3     
  28 Cl28           3.7807     4.9598    -0.0045 Cl      
  29 H29           -0.8206     1.8921     0.0164 H       
  30 H30           -0.8729    -0.6372     0.0073 H       
  31 H31            4.1979     0.1143    -0.0367 H       
  32 H32            1.1162     3.9908     0.0141 H       
  33 H33            1.1772    -3.7481    -0.0286 H       
  34 H34            5.7989     1.6226    -1.9927 H       
  35 H35            8.2438     2.0375    -1.9372 H       
  36 H36           10.3580     4.8043     1.1150 H       
  37 H37            9.0737     3.9065     1.9716 H       
  38 H38           10.5535     2.2586     2.7149 H       
  39 H39           12.3298     2.6855     0.2464 H       
  40 H40           11.9795     1.1555     1.1184 H       
  41 H41            9.7223     1.0692     0.2939 H       
  42 H42           10.5856     1.7399    -1.1240 H       
  43 H43           13.4075     3.7794     4.1227 H       
  44 H44           11.8847     2.9330     4.4873 H       
  45 H45           13.0987     2.1671     3.4347 H       
  46 H46            6.5925     4.9909     2.8520 H       
  47 H47            5.3927     4.3493     3.9995 H       
  48 H48            6.8394     3.3935     3.5973 H       
@<TRIPOS>BOND
   1    1    2 1
   2    1    9 1
   3    1   29 1
   4    2    3 2
   5    2   30 1
   6    3    4 1
   7    3   10 1
   8    4    5 ar
   9    4    9 ar
  10    5    6 ar
  11    5   31 1
  12    6    7 ar
  13    6   14 1
  14    7    8 ar
  15    7   28 1
  16    8    9 ar
  17    8   32 1
  18   10   11 2
  19   10   12 1
  20   12   33 1
  21   13   14 ar
  22   13   18 ar
  23   13   26 1
  24   14   15 ar
  25   15   16 ar
  26   15   34 1
  27   16   17 ar
  28   16   35 1
  29   17   18 ar
  30   17   19 1
  31   19   20 1
  32   19   23 1
  33   20   21 1
  34   20   36 1
  35   20   37 1
  36   21   22 1
  37   21   24 1
  38   21   38 1
  39   22   23 1
  40   22   39 1
  41   22   40 1
  42   23   41 1
  43   23   42 1
  44   24   25 1
  45   25   43 1
  46   25   44 1
  47   25   45 1
  48   26   27 1
  49   27   46 1
  50   27   47 1
  51   27   48 1

#	End of record

