#	Name: ASD03730872
#	Creating user name:	WinNT
#	Creation time:	15. 06. 2019 20:44

#	Modifying user name:	WinNT
#	Modification time:	15. 06. 2019 20:44

#	Program:	/corina/corina34_cracker 3.40 0067  02.08.2006

@<TRIPOS>MOLECULE
ASD03730872
  73   81    0    0    0
SMALL
NO_CHARGES


@<TRIPOS>ATOM
   1 C1             0.2920     1.3062    -0.0786 C.2     
   2 C2             0.2315    -0.1706    -0.0423 C.ar    
   3 C3             1.3989    -0.9236    -0.1794 C.ar    
   4 C4             1.3356    -2.3010    -0.1442 C.ar    
   5 C5             0.1182    -2.9366     0.0261 C.ar    
   6 C6            -1.0424    -2.1963     0.1625 C.ar    
   7 C7            -0.9922    -0.8177     0.1348 C.ar    
   8 O8             1.3678     1.8693    -0.1327 O.2     
   9 N9            -0.8460     2.0280    -0.0573 N.am    
  10 C10            2.7254    -0.2331    -0.3659 C.3     
  11 O11            3.0619    -7.1273    -2.3777 O.3     
  12 C12            3.7754    -8.3543    -2.6198 C.3     
  13 O13            5.0229    -7.9177    -3.1909 O.3     
  14 C14            5.2310    -6.6613    -2.6981 C.ar    
  15 C15            4.0246    -6.1754    -2.1992 C.ar    
  16 C16            6.3710    -5.8804    -2.6330 C.ar    
  17 C17            6.3228    -4.6075    -2.0726 C.ar    
  18 C18            5.1101    -4.1299    -1.5850 C.ar    
  19 C19            3.9730    -4.9084    -1.6429 C.ar    
  20 O20            7.3200    -3.6938    -1.8972 O.3     
  21 C21            5.3708    -2.7371    -1.0770 C.3     
  22 C22            6.7399    -2.3933    -1.6793 C.3     
  23 N23            3.7974    -1.2314    -0.3829 N.am    
  24 C24            4.3094    -1.7667    -1.5091 C.2     
  25 C25            5.3856    -2.6693     0.4213 C.ar    
  26 C26            6.1231    -3.3048     1.3952 C.ar    
  27 C27            5.8985    -3.0207     2.7305 C.ar    
  28 C28            4.9312    -2.0978     3.0845 C.ar    
  29 C29            4.1892    -1.4594     2.1128 C.ar    
  30 C30            4.4087    -1.7388     0.7662 C.ar    
  31 O31            3.9780    -1.5139    -2.6481 O.2     
  32 C32           -0.7852     3.4892     0.0275 C.3     
  33 C33           -2.2037     4.0538     0.1274 C.3     
  34 C34           -2.1401     5.5800     0.2160 C.3     
  35 C35           -1.4571     6.1354    -1.0353 C.3     
  36 C36           -0.0386     5.5708    -1.1353 C.3     
  37 C37            0.7605     5.9769     0.1047 C.3     
  38 C38            0.0775     5.4214     1.3560 C.3     
  39 C39            0.0139     3.8953     1.2675 C.3     
  40 C40           -1.3410     5.9860     1.4560 C.3     
  41 C41           -0.1022     4.0447    -1.2238 C.3     
  42 H42            2.2380    -2.8848    -0.2501 H       
  43 H43            0.0740    -4.0154     0.0522 H       
  44 H44           -1.9893    -2.6985     0.2951 H       
  45 H45           -1.8985    -0.2408     0.2456 H       
  46 H46           -1.7054     1.5799    -0.0982 H       
  47 H47            2.7216     0.3121    -1.3097 H       
  48 H48            2.8909     0.4639     0.4556 H       
  49 H49            3.9480    -8.8878    -1.6851 H       
  50 H50            3.2301    -8.9816    -3.3250 H       
  51 H51            7.3048    -6.2612    -3.0197 H       
  52 H52            3.0398    -4.5286    -1.2537 H       
  53 H53            7.3385    -1.8154    -0.9751 H       
  54 H54            6.6248    -1.8578    -2.6217 H       
  55 H55            6.8778    -4.0253     1.1164 H       
  56 H56            6.4774    -3.5182     3.4945 H       
  57 H57            4.7558    -1.8761     4.1269 H       
  58 H58            3.4352    -0.7403     2.3972 H       
  59 H59           -2.7729     3.7646    -0.7559 H       
  60 H60           -2.6903     3.6581     1.0189 H       
  61 H61           -3.1506     5.9822     0.2872 H       
  62 H62           -2.0263     5.8462    -1.9187 H       
  63 H63           -1.4118     7.2227    -0.9722 H       
  64 H64            0.4480     5.9666    -2.0267 H       
  65 H65            1.7711     5.5746     0.0335 H       
  66 H66            0.8058     7.0641     0.1678 H       
  67 H67            0.6468     5.7107     2.2394 H       
  68 H68           -0.4727     3.4996     2.1589 H       
  69 H69            1.0245     3.4931     1.1963 H       
  70 H70           -1.2957     7.0732     1.5191 H       
  71 H71           -1.8276     5.5903     2.3475 H       
  72 H72            0.9084     3.6425    -1.2950 H       
  73 H73           -0.6714     3.7555    -2.1072 H       
@<TRIPOS>BOND
   1    1    2 1
   2    1    8 2
   3    1    9 am
   4    2    3 ar
   5    2    7 ar
   6    3    4 ar
   7    3   10 1
   8    4    5 ar
   9    4   42 1
  10    5    6 ar
  11    5   43 1
  12    6    7 ar
  13    6   44 1
  14    7   45 1
  15    9   32 1
  16    9   46 1
  17   10   23 1
  18   10   47 1
  19   10   48 1
  20   11   12 1
  21   11   15 1
  22   12   13 1
  23   12   49 1
  24   12   50 1
  25   13   14 1
  26   14   15 ar
  27   14   16 ar
  28   15   19 ar
  29   16   17 ar
  30   16   51 1
  31   17   18 ar
  32   17   20 1
  33   18   19 ar
  34   18   21 1
  35   19   52 1
  36   20   22 1
  37   21   22 1
  38   21   24 1
  39   21   25 1
  40   22   53 1
  41   22   54 1
  42   23   24 am
  43   23   30 1
  44   24   31 2
  45   25   26 ar
  46   25   30 ar
  47   26   27 ar
  48   26   55 1
  49   27   28 ar
  50   27   56 1
  51   28   29 ar
  52   28   57 1
  53   29   30 ar
  54   29   58 1
  55   32   33 1
  56   32   39 1
  57   32   41 1
  58   33   34 1
  59   33   59 1
  60   33   60 1
  61   34   35 1
  62   34   40 1
  63   34   61 1
  64   35   36 1
  65   35   62 1
  66   35   63 1
  67   36   37 1
  68   36   41 1
  69   36   64 1
  70   37   38 1
  71   37   65 1
  72   37   66 1
  73   38   39 1
  74   38   40 1
  75   38   67 1
  76   39   68 1
  77   39   69 1
  78   40   70 1
  79   40   71 1
  80   41   72 1
  81   41   73 1

#	End of record

