#	Name: ASD08178072
#	Creating user name:	WinNT
#	Creation time:	15. 06. 2019 21:18

#	Modifying user name:	WinNT
#	Modification time:	15. 06. 2019 21:18

#	Program:	/corina/corina34_cracker 3.40 0067  02.08.2006

@<TRIPOS>MOLECULE
ASD08178072
  69   72    0    0    0
SMALL
NO_CHARGES


@<TRIPOS>ATOM
   1 N1            -0.0150     1.2583     0.0090 N.2     
   2 N2             0.0021    -0.0041     0.0020 N.2     
   3 C3             1.1271     1.8769     0.0014 C.2     
   4 S4             2.3826     0.7116    -0.0169 S.3     
   5 C5             1.1681    -0.5677    -0.0121 C.2     
   6 N6             1.3017     3.2566     0.0071 N.am    
   7 C7             0.2284     4.0717     0.0222 C.2     
   8 O8            -0.8897     3.6019     0.0309 O.2     
   9 C9             1.4387    -2.0502    -0.0217 C.3     
  10 C10            1.5173    -2.5450    -1.4674 C.3     
  11 C11            1.7920    -4.0501    -1.4771 C.3     
  12 C12            1.8707    -4.5448    -2.9228 C.3     
  13 C13            2.1412    -6.0273    -2.9323 C.2     
  14 N14            1.2495    -6.9667    -2.9293 N.2     
  15 S15            3.7292    -6.7949    -2.9574 S.3     
  16 C16            2.9664    -8.3288    -2.9528 C.2     
  17 N17            1.6794    -8.1537    -2.9388 N.2     
  18 N18            3.6171    -9.5578    -2.9674 N.am    
  19 C19            2.9010   -10.6996    -2.9618 C.2     
  20 O20            1.6891   -10.6553    -2.9442 O.2     
  21 C21            3.6061   -12.0314    -2.9776 C.3     
  22 C22            0.4176     5.5667     0.0285 C.3     
  23 C23            1.0734     6.0033    -1.2831 C.3     
  24 C24            4.4023   -12.2022    -1.6823 C.3     
  25 C25            1.3792     7.5013    -1.2266 C.3     
  26 O26           -0.8528     6.2071     0.1620 O.3     
  27 C27            5.2042   -13.4764    -1.7499 C.ar    
  28 O28            2.6413   -13.0799    -3.0855 O.3     
  29 C29            2.0251     7.9313    -2.5185 C.ar    
  30 C30            1.2421     8.3662    -3.5715 C.ar    
  31 C31            1.8346     8.7605    -4.7565 C.ar    
  32 C32            3.2101     8.7204    -4.8884 C.ar    
  33 C33            3.9931     8.2864    -3.8351 C.ar    
  34 C34            3.4009     7.8962    -2.6486 C.ar    
  35 C35            6.4872   -13.4592    -2.2642 C.ar    
  36 C36            7.2227   -14.6279    -2.3262 C.ar    
  37 C37            6.6754   -15.8139    -1.8737 C.ar    
  38 C38            5.3927   -15.8310    -1.3586 C.ar    
  39 C39            4.6588   -14.6614    -1.2925 C.ar    
  40 H40            2.1959     3.6323     0.0002 H       
  41 H41            2.3840    -2.2503     0.4827 H       
  42 H42            0.6331    -2.5700     0.4969 H       
  43 H43            0.5720    -2.3449    -1.9718 H       
  44 H44            2.3230    -2.0252    -1.9860 H       
  45 H45            2.7374    -4.2501    -0.9727 H       
  46 H46            0.9864    -4.5698    -0.9585 H       
  47 H47            0.9253    -4.3448    -3.4272 H       
  48 H48            2.6763    -4.0251    -3.4413 H       
  49 H49            4.5863    -9.5933    -2.9815 H       
  50 H50            4.2849   -12.0731    -3.8295 H       
  51 H51            1.0564     5.8486     0.8655 H       
  52 H52            2.0004     5.4484    -1.4282 H       
  53 H53            0.3958     5.8018    -2.1128 H       
  54 H54            5.0764   -11.3551    -1.5557 H       
  55 H55            3.7155   -12.2496    -0.8372 H       
  56 H56            0.4522     8.0561    -1.0816 H       
  57 H57            2.0568     7.7028    -0.3969 H       
  58 H58           -1.4739     6.0011    -0.5499 H       
  59 H59            2.0032   -13.1035    -2.3594 H       
  60 H60            0.1675     8.3975    -3.4684 H       
  61 H61            1.2229     9.0996    -5.5794 H       
  62 H62            3.6729     9.0279    -5.8145 H       
  63 H63            5.0677     8.2548    -3.9383 H       
  64 H64            4.0126     7.5571    -1.8256 H       
  65 H65            6.9148   -12.5326    -2.6177 H       
  66 H66            8.2249   -14.6146    -2.7286 H       
  67 H67            7.2498   -16.7272    -1.9228 H       
  68 H68            4.9649   -16.7576    -1.0053 H       
  69 H69            3.6566   -14.6747    -0.8901 H       
@<TRIPOS>BOND
   1    1    2 1
   2    1    3 2
   3    2    5 2
   4    3    4 1
   5    3    6 1
   6    4    5 1
   7    5    9 1
   8    6    7 am
   9    6   40 1
  10    7    8 2
  11    7   22 1
  12    9   10 1
  13    9   41 1
  14    9   42 1
  15   10   11 1
  16   10   43 1
  17   10   44 1
  18   11   12 1
  19   11   45 1
  20   11   46 1
  21   12   13 1
  22   12   47 1
  23   12   48 1
  24   13   14 2
  25   13   15 1
  26   14   17 1
  27   15   16 1
  28   16   17 2
  29   16   18 1
  30   18   19 am
  31   18   49 1
  32   19   20 2
  33   19   21 1
  34   21   28 1
  35   21   24 1
  36   21   50 1
  37   22   23 1
  38   22   26 1
  39   22   51 1
  40   23   25 1
  41   23   52 1
  42   23   53 1
  43   24   27 1
  44   24   54 1
  45   24   55 1
  46   25   29 1
  47   25   56 1
  48   25   57 1
  49   26   58 1
  50   27   35 ar
  51   27   39 ar
  52   28   59 1
  53   29   30 ar
  54   29   34 ar
  55   30   31 ar
  56   30   60 1
  57   31   32 ar
  58   31   61 1
  59   32   33 ar
  60   32   62 1
  61   33   34 ar
  62   33   63 1
  63   34   64 1
  64   35   36 ar
  65   35   65 1
  66   36   37 ar
  67   36   66 1
  68   37   38 ar
  69   37   67 1
  70   38   39 ar
  71   38   68 1
  72   39   69 1

#	End of record

