#	Name: ASD01810375
#	Creating user name:	WinNT
#	Creation time:	15. 06. 2019 19:24

#	Modifying user name:	WinNT
#	Modification time:	15. 06. 2019 19:24

#	Program:	/corina/corina34_cracker 3.40 0067  02.08.2006

@<TRIPOS>MOLECULE
ASD01810375
  37   37    0    0    0
SMALL
NO_CHARGES


@<TRIPOS>ATOM
   1 C1             1.4714     1.4870    -0.4858 C.2     
   2 C2             1.1306     0.3238    -0.9701 C.2     
   3 C3             2.0565    -0.5844    -1.7377 C.3     
   4 C4             2.8420     2.0985    -0.6215 C.3     
   5 C5             3.3975    -0.6808    -1.0074 C.3     
   6 C6             3.3268     1.9484    -2.0649 C.3     
   7 C7             1.4323    -1.9772    -1.8439 C.3     
   8 C8             2.2796    -0.0171    -3.1410 C.3     
   9 C9             2.7765     3.5831    -0.2573 C.3     
  10 C10            3.8144     1.3849     0.3199 C.3     
  11 C11           -0.3138     0.0072    -0.6597 C.3     
  12 C12           -0.9358     1.3643    -0.2563 C.3     
  13 C13            0.3093     2.1427     0.2233 C.3     
  14 H14            3.2242    -0.9335     0.0386 H       
  15 H15            4.0091    -1.4544    -1.4716 H       
  16 H16            3.9144     0.2768    -1.0691 H       
  17 H17            2.5887     2.3774    -2.7425 H       
  18 H18            4.2766     2.4695    -2.1852 H       
  19 H19            3.4605     0.8915    -2.2952 H       
  20 H20            0.4769    -1.9085    -2.3641 H       
  21 H21            2.1019    -2.6341    -2.3991 H       
  22 H22            1.2733    -2.3813    -0.8441 H       
  23 H23            2.1744     1.0675    -3.1155 H       
  24 H24            3.2814    -0.2770    -3.4830 H       
  25 H25            1.5419    -0.4377    -3.8244 H       
  26 H26            2.4311     3.6900     0.7710 H       
  27 H27            3.7678     4.0254    -0.3555 H       
  28 H28            2.0837     4.0915    -0.9279 H       
  29 H29            3.4404     0.3847     0.5385 H       
  30 H30            4.7924     1.3113    -0.1556 H       
  31 H31            3.9031     1.9504     1.2475 H       
  32 H32           -0.8133    -0.3919    -1.5425 H       
  33 H33           -0.3783    -0.7007     0.1667 H       
  34 H34           -1.3931     1.8558    -1.1149 H       
  35 H35           -1.6573     1.2394     0.5511 H       
  36 H36            0.4260     2.0446     1.3026 H       
  37 H37            0.2317     3.1931    -0.0572 H       
@<TRIPOS>BOND
   1    1    2 2
   2    1    4 1
   3    1   13 1
   4    2    3 1
   5    2   11 1
   6    3    5 1
   7    3    7 1
   8    3    8 1
   9    4    6 1
  10    4    9 1
  11    4   10 1
  12    5   14 1
  13    5   15 1
  14    5   16 1
  15    6   17 1
  16    6   18 1
  17    6   19 1
  18    7   20 1
  19    7   21 1
  20    7   22 1
  21    8   23 1
  22    8   24 1
  23    8   25 1
  24    9   26 1
  25    9   27 1
  26    9   28 1
  27   10   29 1
  28   10   30 1
  29   10   31 1
  30   11   12 1
  31   11   32 1
  32   11   33 1
  33   12   13 1
  34   12   34 1
  35   12   35 1
  36   13   36 1
  37   13   37 1

#	End of record

