#	Name: ASD00310154
#	Creating user name:	WinNT
#	Creation time:	15. 06. 2019 18:33

#	Modifying user name:	WinNT
#	Modification time:	15. 06. 2019 18:33

#	Program:	/corina/corina34_cracker 3.40 0067  02.08.2006

@<TRIPOS>MOLECULE
ASD00310154
  14   14    0    0    0
SMALL
NO_CHARGES


@<TRIPOS>ATOM
   1 N1            -0.0169     1.3932     0.0097 N.pl3   
   2 C2             0.0021    -0.0041     0.0020 C.ar    
   3 C3             1.2141    -0.6832    -0.0132 C.ar    
   4 C4             1.2306    -2.0666    -0.0208 C.ar    
   5 C5             0.0395    -2.7745    -0.0138 C.ar    
   6 C6            -1.1696    -2.0990     0.0009 C.ar    
   7 C7            -1.1902    -0.7155     0.0153 C.ar    
   8 I8             3.0152     0.3867    -0.0253 I       
   9 F9            -2.3296    -2.7914     0.0069 F       
  10 F10            2.4088    -2.7277    -0.0356 F       
  11 Br11           0.0647    -4.6653    -0.0249 Br      
  12 H12            0.8165     1.8895     0.0044 H       
  13 H13           -0.8634     1.8667     0.0163 H       
  14 H14           -2.1332    -0.1893     0.0320 H       
@<TRIPOS>BOND
   1    1    2 1
   2    1   12 1
   3    1   13 1
   4    2    3 ar
   5    2    7 ar
   6    3    4 ar
   7    3    8 1
   8    4    5 ar
   9    4   10 1
  10    5    6 ar
  11    5   11 1
  12    6    7 ar
  13    6    9 1
  14    7   14 1

#	End of record

