#	Name: ASD01884301
#	Creating user name:	WinNT
#	Creation time:	15. 06. 2019 19:47

#	Modifying user name:	WinNT
#	Modification time:	15. 06. 2019 19:47

#	Program:	/corina/corina34_cracker 3.40 0067  02.08.2006

@<TRIPOS>MOLECULE
ASD01884301
  30   31    0    0    0
SMALL
NO_CHARGES


@<TRIPOS>ATOM
   1 C1            -0.0398     1.3273    -0.3023 C.ar    
   2 N2            -0.0115     0.0108    -0.2361 N.ar    
   3 C3            -1.1147    -0.7029    -0.1282 C.ar    
   4 C4            -2.3559    -0.0848    -0.0803 C.ar    
   5 C5            -2.4223     1.3037    -0.1477 C.ar    
   6 C6            -1.2384     2.0149    -0.2549 C.ar    
   7 C7            -5.1996     0.0942     1.4059 C.ar    
   8 C8            -4.6739    -0.1646     0.1496 C.ar    
   9 C9            -5.3554     0.2503    -0.9881 C.ar    
  10 C10           -6.5581     0.9209    -0.8668 C.ar    
  11 C11           -7.0842     1.1793     0.3924 C.ar    
  12 C12           -6.4019     0.7640     1.5280 C.ar    
  13 N13           -8.3012     1.8583     0.5164 N.pl3   
  14 C14           -1.0267    -2.2057    -0.0567 C.3     
  15 O15           -3.4904    -0.8245     0.0305 O.3     
  16 C16            1.2522     2.0933    -0.4250 C.3     
  17 F17           -4.8424    -0.0012    -2.2124 F       
  18 H18           -3.3733     1.8144    -0.1133 H       
  19 H19           -1.2520     3.0934    -0.3096 H       
  20 H20           -4.6714    -0.2322     2.2896 H       
  21 H21           -7.0882     1.2440    -1.7505 H       
  22 H22           -6.8109     0.9649     2.5072 H       
  23 H23           -8.7776     2.1487    -0.2770 H       
  24 H24           -8.6685     2.0387     1.3959 H       
  25 H25           -0.9394    -2.5154     0.9847 H       
  26 H26           -1.9252    -2.6433    -0.4918 H       
  27 H27           -0.1520    -2.5452    -0.6114 H       
  28 H28            1.4978     2.2250    -1.4788 H       
  29 H29            1.1421     3.0695     0.0472 H       
  30 H30            2.0512     1.5393     0.0678 H       
@<TRIPOS>BOND
   1    1    2 ar
   2    1   16 1
   3    1    6 ar
   4    2    3 ar
   5    3    4 ar
   6    3   14 1
   7    4    5 ar
   8    4   15 1
   9    5    6 ar
  10    5   18 1
  11    6   19 1
  12    7    8 ar
  13    7   12 ar
  14    7   20 1
  15    8    9 ar
  16    8   15 1
  17    9   10 ar
  18    9   17 1
  19   10   11 ar
  20   10   21 1
  21   11   12 ar
  22   11   13 1
  23   12   22 1
  24   13   23 1
  25   13   24 1
  26   14   25 1
  27   14   26 1
  28   14   27 1
  29   16   28 1
  30   16   29 1
  31   16   30 1

#	End of record

