#	Name: ASD02038856
#	Creating user name:	WinNT
#	Creation time:	15. 06. 2019 20:17

#	Modifying user name:	WinNT
#	Modification time:	15. 06. 2019 20:17

#	Program:	/corina/corina34_cracker 3.40 0067  02.08.2006

@<TRIPOS>MOLECULE
ASD02038856
  52   54    0    0    0
SMALL
NO_CHARGES


@<TRIPOS>ATOM
   1 C1            -1.2803    -0.8506     0.4547 C.2     
   2 C2            -0.0633    -0.0355     0.2961 C.2     
   3 N3             1.1355    -0.6349     0.1542 N.am    
   4 C4             1.2418    -2.0927     0.2531 C.3     
   5 C5             1.2212    -2.6928    -1.1291 C.ar    
   6 C6             2.4084    -3.0148    -1.7600 C.ar    
   7 C7             2.3929    -3.5652    -3.0285 C.ar    
   8 C8             1.1905    -3.7946    -3.6684 C.ar    
   9 C9            -0.0025    -3.4728    -3.0371 C.ar    
  10 C10            0.0156    -2.9260    -1.7624 C.ar    
  11 C11            2.3321     0.1713    -0.0990 C.3     
  12 C12            3.6889    -3.9145    -3.7135 C.3     
  13 C13           -1.1294    -4.2671    -4.9739 C.3     
  14 F14           -0.4944    -5.5122    -4.9130 F       
  15 F15           -0.4099    -3.4177    -5.8212 F       
  16 F16           -2.4277    -4.4295    -5.4691 F       
  17 C17            2.1143     1.0151    -1.3515 C.3     
  18 C18            3.4313     1.6670    -1.7786 C.3     
  19 S19            3.9750     2.8107    -0.4760 S.o2    
  20 C20            3.9786     1.7200     0.9769 C.3     
  21 C21            2.6031     1.0625     1.1096 C.3     
  22 O22           -0.1405     1.1782     0.2933 O.2     
  23 N23           -1.3394    -2.2065     0.4870 N.2     
  24 C24           -2.5799    -2.5703     0.6399 C.2     
  25 N25           -3.3606    -1.4608     0.7111 N.pl3   
  26 C26           -2.5524    -0.3803     0.6018 C.2     
  27 C27           -4.8154    -1.4377     0.8821 C.3     
  28 O28            5.3115     3.2088    -0.7491 O.2     
  29 O29            2.9747     3.8039    -0.2965 O.2     
  30 O30           -1.1868    -3.6972    -3.6648 O.3     
  31 H31            2.1757    -2.3560     0.7497 H       
  32 H32            0.4019    -2.4800     0.8299 H       
  33 H33            3.3496    -2.8358    -1.2614 H       
  34 H34            1.1789    -4.2238    -4.6593 H       
  35 H35           -0.9116    -2.6747    -1.2689 H       
  36 H36            3.1844    -0.4901    -0.2551 H       
  37 H37            3.9638    -4.9407    -3.4695 H       
  38 H38            3.5673    -3.8177    -4.7924 H       
  39 H39            4.4732    -3.2378    -3.3741 H       
  40 H40            1.7475     0.3790    -2.1570 H       
  41 H41            1.3780     1.7910    -1.1415 H       
  42 H42            4.1882     0.8968    -1.9270 H       
  43 H43            3.2816     2.2170    -2.7077 H       
  44 H44            4.7404     0.9503     0.8532 H       
  45 H45            4.1911     2.3051     1.8716 H       
  46 H46            1.8367     1.8354     1.1683 H       
  47 H47            2.5765     0.4593     2.0171 H       
  48 H48           -2.9316    -3.5896     0.7001 H       
  49 H49           -2.8572     0.6557     0.6199 H       
  50 H50           -5.0560    -1.4125     1.9449 H       
  51 H51           -5.2243    -0.5520     0.3958 H       
  52 H52           -5.2482    -2.3315     0.4327 H       
@<TRIPOS>BOND
   1    1    2 1
   2    1   23 1
   3    1   26 2
   4    2    3 am
   5    2   22 2
   6    3    4 1
   7    3   11 1
   8    4    5 1
   9    4   31 1
  10    4   32 1
  11    5    6 ar
  12    5   10 ar
  13    6    7 ar
  14    6   33 1
  15    7    8 ar
  16    7   12 1
  17    8    9 ar
  18    8   34 1
  19    9   10 ar
  20    9   30 1
  21   10   35 1
  22   11   17 1
  23   11   21 1
  24   11   36 1
  25   12   37 1
  26   12   38 1
  27   12   39 1
  28   13   14 1
  29   13   15 1
  30   13   16 1
  31   13   30 1
  32   17   18 1
  33   17   40 1
  34   17   41 1
  35   18   19 1
  36   18   42 1
  37   18   43 1
  38   19   20 1
  39   19   28 2
  40   19   29 2
  41   20   21 1
  42   20   44 1
  43   20   45 1
  44   21   46 1
  45   21   47 1
  46   23   24 2
  47   24   25 1
  48   24   48 1
  49   25   26 1
  50   25   27 1
  51   26   49 1
  52   27   50 1
  53   27   51 1
  54   27   52 1

#	End of record

