#	Name: ASD05790068
#	Creating user name:	WinNT
#	Creation time:	15. 06. 2019 21:03

#	Modifying user name:	WinNT
#	Modification time:	15. 06. 2019 21:03

#	Program:	/corina/corina34_cracker 3.40 0067  02.08.2006

@<TRIPOS>MOLECULE
ASD05790068
  71   76    0    0    0
SMALL
NO_CHARGES


@<TRIPOS>ATOM
   1 C1            -0.0184     1.5090     0.0103 C.3     
   2 C2             0.0021    -0.0041     0.0020 C.2     
   3 C3             0.7775    -0.7052     1.0957 C.3     
   4 C4             2.1339    -0.0326     1.2173 C.2     
   5 C5             2.1823     1.4771     1.2171 C.3     
   6 C6             1.4245     2.0159    -0.0007 C.3     
   7 C7             3.1835    -0.8001     1.3084 C.2     
   8 C8             4.5928    -0.2840     1.4744 C.3     
   9 C9             4.4776     1.0895     2.1232 C.3     
  10 C10            3.6148     1.9431     1.1634 C.3     
  11 C11            5.7895     1.8888     2.1543 C.3     
  12 C12            5.3553     3.3497     2.1097 C.2     
  13 C13            3.9046     3.3661     1.6173 C.3     
  14 C14            6.5293     1.5796     3.4432 C.3     
  15 C15            7.8470     2.2693     3.5695 C.3     
  16 C16            7.7821     3.7157     3.9967 C.3     
  17 C17            7.4179     4.6440     2.8512 C.3     
  18 C18            6.0405     4.3884     2.3585 C.2     
  19 O19            6.8310     3.8784     5.0719 O.3     
  20 C20            7.5356     4.2418     6.2430 C.3     
  21 C21            8.7642     5.0408     5.7274 C.3     
  22 C22            9.1744     4.1415     4.5492 C.3     
  23 N23            6.8695     5.0584     7.2412 N.3     
  24 C24            7.7878     5.2492     8.3833 C.3     
  25 C25            9.1128     5.8602     7.9359 C.3     
  26 N26            9.7179     5.0896     6.8306 N.3     
  27 O27           -0.5815    -0.6312    -0.8491 O.2     
  28 C28            1.5304     2.0064     2.4961 C.3     
  29 C29            5.2780     5.6604     2.0909 C.3     
  30 C30            7.1287     6.1769     9.4060 C.3     
  31 C31            9.9690     2.9273     5.0341 C.3     
  32 H32           -0.5410     1.8728    -0.8744 H       
  33 H33           -0.5239     1.8632     0.9087 H       
  34 H34            0.2394    -0.6221     2.0399 H       
  35 H35            0.9095    -1.7560     0.8377 H       
  36 H36            1.9189     1.6791    -0.9119 H       
  37 H37            1.4249     3.1056     0.0265 H       
  38 H38            3.0364    -1.8690     1.2628 H       
  39 H39            5.1627    -0.9544     2.1177 H       
  40 H40            5.0761    -0.1979     0.5012 H       
  41 H41            4.0222     1.0201     3.1111 H       
  42 H42            3.9909     1.8233     0.1474 H       
  43 H43            6.4021     1.6479     1.2856 H       
  44 H44            3.7976     4.0578     0.7817 H       
  45 H45            3.2338     3.6472     2.4290 H       
  46 H46            5.9010     1.8752     4.2834 H       
  47 H47            6.6941     0.5036     3.4992 H       
  48 H48            8.4501     1.7246     4.2959 H       
  49 H49            8.3531     2.2196     2.6054 H       
  50 H50            7.4876     5.6764     3.1938 H       
  51 H51            8.1223     4.4934     2.0331 H       
  52 H52            7.8941     3.3346     6.7294 H       
  53 H53            8.4820     6.0374     5.3878 H       
  54 H54            9.7368     4.7039     3.8039 H       
  55 H55            6.5866     5.9455     6.8526 H       
  56 H56            7.9803     4.2837     8.8513 H       
  57 H57            8.9389     6.8835     7.6033 H       
  58 H58            9.8021     5.8735     8.7801 H       
  59 H59            9.9691     4.1603     7.1329 H       
  60 H60            2.0693     1.6250     3.3633 H       
  61 H61            1.5646     3.0959     2.4973 H       
  62 H62            0.4927     1.6755     2.5387 H       
  63 H63            5.9104     6.5181     2.3199 H       
  64 H64            4.9852     5.6946     1.0415 H       
  65 H65            4.3867     5.6885     2.7179 H       
  66 H66            6.1977     5.7302     9.7548 H       
  67 H67            7.8013     6.3218    10.2515 H       
  68 H68            6.9178     7.1396     8.9403 H       
  69 H69            9.3665     2.3576     5.7416 H       
  70 H70           10.2235     2.2960     4.1827 H       
  71 H71           10.8833     3.2632     5.5234 H       
@<TRIPOS>BOND
   1    1    2 1
   2    1    6 1
   3    1   32 1
   4    1   33 1
   5    2    3 1
   6    2   27 2
   7    3    4 1
   8    3   34 1
   9    3   35 1
  10    4    5 1
  11    4    7 2
  12    5    6 1
  13    5   28 1
  14    5   10 1
  15    6   36 1
  16    6   37 1
  17    7    8 1
  18    7   38 1
  19    8    9 1
  20    8   39 1
  21    8   40 1
  22    9   10 1
  23    9   11 1
  24    9   41 1
  25   10   13 1
  26   10   42 1
  27   11   12 1
  28   11   14 1
  29   11   43 1
  30   12   13 1
  31   12   18 2
  32   13   44 1
  33   13   45 1
  34   14   15 1
  35   14   46 1
  36   14   47 1
  37   15   16 1
  38   15   48 1
  39   15   49 1
  40   16   17 1
  41   16   19 1
  42   16   22 1
  43   17   18 1
  44   17   50 1
  45   17   51 1
  46   18   29 1
  47   19   20 1
  48   20   21 1
  49   20   23 1
  50   20   52 1
  51   21   22 1
  52   21   26 1
  53   21   53 1
  54   22   31 1
  55   22   54 1
  56   23   24 1
  57   23   55 1
  58   24   25 1
  59   24   30 1
  60   24   56 1
  61   25   26 1
  62   25   57 1
  63   25   58 1
  64   26   59 1
  65   28   60 1
  66   28   61 1
  67   28   62 1
  68   29   63 1
  69   29   64 1
  70   29   65 1
  71   30   66 1
  72   30   67 1
  73   30   68 1
  74   31   69 1
  75   31   70 1
  76   31   71 1

#	End of record

