#	Name: ASD02500065
#	Creating user name:	WinNT
#	Creation time:	15. 06. 2019 20:22

#	Modifying user name:	WinNT
#	Modification time:	15. 06. 2019 20:22

#	Program:	/corina/corina34_cracker 3.40 0067  02.08.2006

@<TRIPOS>MOLECULE
ASD02500065
  57   60    0    0    0
SMALL
NO_CHARGES


@<TRIPOS>ATOM
   1 C1            -1.0478     0.1206     2.5082 C.ar    
   2 C2            -0.5807     0.2074     3.8063 C.ar    
   3 C3             0.5089    -0.5463     4.2007 C.ar    
   4 C4             1.1311    -1.3872     3.2970 C.ar    
   5 C5             0.6634    -1.4747     1.9991 C.ar    
   6 C6            -0.4253    -0.7199     1.6044 C.ar    
   7 S7            -2.4412     1.0759     2.0075 S.o2    
   8 O8            -2.9384     0.4696     0.8224 O.2     
   9 O9            -3.2327     1.2715     3.1714 O.2     
  10 N10           -1.8788     2.5701     1.5679 N.am    
  11 C11           -1.2814     3.3944     2.5150 C.ar    
  12 C12           -0.0849     4.0409     2.2174 C.ar    
  13 C13            0.5088     4.8573     3.1526 C.ar    
  14 C14           -0.0908     5.0372     4.4026 C.ar    
  15 C15           -1.2923     4.3866     4.6984 C.ar    
  16 C16           -1.8839     3.5759     3.7568 C.ar    
  17 C17            0.5432     5.9113     5.4076 C.2     
  18 O18           -0.1411     6.6499     6.0894 O.2     
  19 N19            1.8810     5.8914     5.5702 N.am    
  20 C20            2.5246     6.6828     6.6297 C.3     
  21 C21            3.4530     5.7623     7.4291 C.3     
  22 N22            4.3781     5.0868     6.5095 N.3     
  23 C23            3.6560     4.2202     5.5684 C.3     
  24 C24            2.7355     5.0728     4.6966 C.3     
  25 C25            5.3474     4.3639     7.2143 C.ar    
  26 C26            6.2878     5.0333     7.9951 C.ar    
  27 C27            7.2441     4.3130     8.6907 C.ar    
  28 C28            7.2651     2.9323     8.6094 C.ar    
  29 C29            6.3331     2.2675     7.8349 C.ar    
  30 C30            5.3711     2.9791     7.1422 C.ar    
  31 O31            6.2665     6.3910     8.0734 O.3     
  32 C32            7.2608     7.0093     8.8927 C.3     
  33 H33           -1.0669     0.8644     4.5123 H       
  34 H34            0.8743    -0.4779     5.2147 H       
  35 H35            1.9828    -1.9755     3.6049 H       
  36 H36            1.1498    -2.1314     1.2930 H       
  37 H37           -0.7904    -0.7880     0.5902 H       
  38 H38           -1.9660     2.8703     0.6496 H       
  39 H39            0.3781     3.9013     1.2517 H       
  40 H40            1.4372     5.3584     2.9213 H       
  41 H41           -1.7577     4.5233     5.6633 H       
  42 H42           -2.8146     3.0768     3.9830 H       
  43 H43            3.1053     7.4896     6.1826 H       
  44 H44            1.7634     7.0982     7.2901 H       
  45 H45            4.0211     6.3534     8.1474 H       
  46 H46            2.8588     5.0179     7.9592 H       
  47 H47            4.3714     3.6931     4.9372 H       
  48 H48            3.0591     3.4973     6.1243 H       
  49 H49            2.1136     4.4243     4.0796 H       
  50 H50            3.3368     5.7219     4.0601 H       
  51 H51            7.9740     4.8293     9.2965 H       
  52 H52            8.0120     2.3722     9.1524 H       
  53 H53            6.3539     1.1895     7.7740 H       
  54 H54            4.6412     2.4570     6.5413 H       
  55 H55            7.1580     6.6551     9.9184 H       
  56 H56            8.2515     6.7530     8.5174 H       
  57 H57            7.1312     8.0913     8.8671 H       
@<TRIPOS>BOND
   1    1    2 ar
   2    1    6 ar
   3    1    7 1
   4    2    3 ar
   5    2   33 1
   6    3    4 ar
   7    3   34 1
   8    4    5 ar
   9    4   35 1
  10    5    6 ar
  11    5   36 1
  12    6   37 1
  13    7    8 2
  14    7    9 2
  15    7   10 am
  16   10   11 1
  17   10   38 1
  18   11   12 ar
  19   11   16 ar
  20   12   13 ar
  21   12   39 1
  22   13   14 ar
  23   13   40 1
  24   14   15 ar
  25   14   17 1
  26   15   16 ar
  27   15   41 1
  28   16   42 1
  29   17   18 2
  30   17   19 am
  31   19   20 1
  32   19   24 1
  33   20   21 1
  34   20   43 1
  35   20   44 1
  36   21   22 1
  37   21   45 1
  38   21   46 1
  39   22   23 1
  40   22   25 1
  41   23   24 1
  42   23   47 1
  43   23   48 1
  44   24   49 1
  45   24   50 1
  46   25   26 ar
  47   25   30 ar
  48   26   27 ar
  49   26   31 1
  50   27   28 ar
  51   27   51 1
  52   28   29 ar
  53   28   52 1
  54   29   30 ar
  55   29   53 1
  56   30   54 1
  57   31   32 1
  58   32   55 1
  59   32   56 1
  60   32   57 1

#	End of record

