#	Name: ASD02508431
#	Creating user name:	WinNT
#	Creation time:	15. 06. 2019 20:24

#	Modifying user name:	WinNT
#	Modification time:	15. 06. 2019 20:24

#	Program:	/corina/corina34_cracker 3.40 0067  02.08.2006

@<TRIPOS>MOLECULE
ASD02508431
  40   42    0    0    0
SMALL
NO_CHARGES


@<TRIPOS>ATOM
   1 C1            -0.5316     1.5394     0.3987 C.2     
   2 C2            -0.2818     0.1842     0.1545 C.2     
   3 C3             1.0551     0.0230     0.0245 C.2     
   4 N4             1.6333     1.2420     0.1821 N.pl3   
   5 N5             0.6128     2.1730     0.4155 N.2     
   6 C6             3.0029     1.5182     0.1229 C.ar    
   7 C7             3.4340     2.7958    -0.2174 C.ar    
   8 N8             3.8765     0.5632     0.3964 N.ar    
   9 C9             5.1767     0.7808     0.3525 C.ar    
  10 C10            5.6761     2.0241     0.0170 C.ar    
  11 C11            4.7935     3.0553    -0.2722 C.ar    
  12 S12           -1.4950    -1.0883     0.0376 S.o2    
  13 O13           -0.8435    -2.2982     0.3992 O.2     
  14 O14           -2.6531    -0.6007     0.7011 O.2     
  15 N15           -1.8992    -1.2347    -1.5617 N.am    
  16 C16           -2.4754    -0.1545    -2.2395 C.ar    
  17 C17           -2.0081     0.2060    -3.4964 C.ar    
  18 C18           -2.5773     1.2723    -4.1646 C.ar    
  19 C19           -3.6151     1.9832    -3.5804 C.ar    
  20 C20           -4.0822     1.6241    -2.3248 C.ar    
  21 C21           -3.5185     0.5539    -1.6580 C.ar    
  22 Cl22           2.2841     4.0479    -0.5692 Cl      
  23 O23           -4.1747     3.0333    -4.2390 O.3     
  24 C24           -5.2393     3.7205    -3.5782 C.3     
  25 C25            7.1639     2.2600    -0.0287 C.3     
  26 F26            7.8339     1.0781     0.3050 F       
  27 F27            7.5336     2.6575    -1.3181 F       
  28 F28            7.5052     3.2634     0.8845 F       
  29 H29           -1.5039     1.9867     0.5439 H       
  30 H30            1.5696    -0.9066    -0.1689 H       
  31 H31            5.8597    -0.0236     0.5822 H       
  32 H32            5.1583     4.0367    -0.5373 H       
  33 H33           -1.7366    -2.0692    -2.0286 H       
  34 H34           -1.1995    -0.3470    -3.9512 H       
  35 H35           -2.2140     1.5528    -5.1422 H       
  36 H36           -4.8901     2.1784    -1.8704 H       
  37 H37           -3.8826     0.2742    -0.6804 H       
  38 H38           -6.0569     3.0255    -3.3869 H       
  39 H39           -4.8785     4.1262    -2.6331 H       
  40 H40           -5.5945     4.5340    -4.2108 H       
@<TRIPOS>BOND
   1    1    2 1
   2    1    5 2
   3    1   29 1
   4    2    3 2
   5    2   12 1
   6    3    4 1
   7    3   30 1
   8    4    5 1
   9    4    6 1
  10    6    7 ar
  11    6    8 ar
  12    7   22 1
  13    7   11 ar
  14    8    9 ar
  15    9   10 ar
  16    9   31 1
  17   10   11 ar
  18   10   25 1
  19   11   32 1
  20   12   13 2
  21   12   14 2
  22   12   15 am
  23   15   16 1
  24   15   33 1
  25   16   17 ar
  26   16   21 ar
  27   17   18 ar
  28   17   34 1
  29   18   19 ar
  30   18   35 1
  31   19   20 ar
  32   19   23 1
  33   20   21 ar
  34   20   36 1
  35   21   37 1
  36   23   24 1
  37   24   38 1
  38   24   39 1
  39   24   40 1
  40   25   26 1
  41   25   27 1
  42   25   28 1

#	End of record

