#	Name: ASD00111043
#	Creating user name:	WinNT
#	Creation time:	15. 06. 2019 18:30

#	Modifying user name:	WinNT
#	Modification time:	15. 06. 2019 18:30

#	Program:	/corina/corina34_cracker 3.40 0067  02.08.2006

@<TRIPOS>MOLECULE
ASD00111043
  37   39    0    0    0
SMALL
NO_CHARGES


@<TRIPOS>ATOM
   1 C1            -0.0168     1.3892     0.0097 C.ar    
   2 C2             0.0021    -0.0041     0.0020 C.ar    
   3 C3             1.2214    -0.6808    -0.0127 C.ar    
   4 C4             2.3991     0.0392    -0.0194 C.ar    
   5 C5             2.3747     1.4137    -0.0130 C.ar    
   6 C6             1.1705     2.0948     0.0021 C.ar    
   7 C7             3.7258    -0.6918    -0.0336 C.3     
   8 C8             4.3821    -0.4713    -1.4000 C.3     
   9 N9             5.1228     0.7795    -1.4225 N.3     
  10 C10            4.3383     2.0030    -1.3897 C.3     
  11 C11            3.6758     2.1900    -0.0221 C.3     
  12 C12            3.3920     3.6747     0.2147 C.3     
  13 C13           -1.2711    -0.7653     0.0100 C.ar    
  14 C14           -2.1445    -0.6814    -1.0749 C.ar    
  15 C15           -1.5978    -1.5729     1.0998 C.ar    
  16 C16           -2.7859    -2.2801     1.1006 C.ar    
  17 C17           -3.6495    -2.1884     0.0244 C.ar    
  18 C18           -3.3293    -1.3939    -1.0612 C.ar    
  19 F19           -1.8334     0.0947    -2.1361 F       
  20 F20           -0.7550    -1.6640     2.1518 F       
  21 H21           -0.9591     1.9168     0.0170 H       
  22 H22            1.2441    -1.7606    -0.0184 H       
  23 H23            1.1589     3.1747     0.0069 H       
  24 H24            4.3708    -0.2977     0.7517 H       
  25 H25            3.5600    -1.7572     0.1267 H       
  26 H26            5.0644    -1.2957    -1.6073 H       
  27 H27            3.6097    -0.4444    -2.1686 H       
  28 H28            5.8378     0.7892    -0.7107 H       
  29 H29            4.9907     2.8526    -1.5912 H       
  30 H30            3.5666     1.9546    -2.1580 H       
  31 H31            4.3343     1.8120     0.7599 H       
  32 H32            2.7252     4.0458    -0.5636 H       
  33 H33            2.9205     3.8036     1.1890 H       
  34 H34            4.3281     4.2324     0.1875 H       
  35 H35           -3.0399    -2.9059     1.9434 H       
  36 H36           -4.5763    -2.7429     0.0301 H       
  37 H37           -4.0082    -1.3266    -1.8985 H       
@<TRIPOS>BOND
   1    1    2 ar
   2    1    6 ar
   3    1   21 1
   4    2    3 ar
   5    2   13 1
   6    3    4 ar
   7    3   22 1
   8    4    5 ar
   9    4    7 1
  10    5    6 ar
  11    5   11 1
  12    6   23 1
  13    7    8 1
  14    7   24 1
  15    7   25 1
  16    8    9 1
  17    8   26 1
  18    8   27 1
  19    9   10 1
  20    9   28 1
  21   10   11 1
  22   10   29 1
  23   10   30 1
  24   11   12 1
  25   11   31 1
  26   12   32 1
  27   12   33 1
  28   12   34 1
  29   13   14 ar
  30   13   15 ar
  31   14   19 1
  32   14   18 ar
  33   15   16 ar
  34   15   20 1
  35   16   17 ar
  36   16   35 1
  37   17   18 ar
  38   17   36 1
  39   18   37 1

#	End of record

