#	Name: ASD00844992
#	Creating user name:	WinNT
#	Creation time:	15. 06. 2019 18:51

#	Modifying user name:	WinNT
#	Modification time:	15. 06. 2019 18:51

#	Program:	/corina/corina34_cracker 3.40 0067  02.08.2006

@<TRIPOS>MOLECULE
ASD00844992
  90   95    0    0    0
SMALL
NO_CHARGES


@<TRIPOS>ATOM
   1 F1             5.6828    -2.3986    -1.8835 F       
   2 C2             0.8324     1.1980    -0.3537 C.ar    
   3 C3             1.0308    -0.1456    -0.6359 C.ar    
   4 C4             0.8494    -1.0952     0.3594 C.ar    
   5 C5             0.4719    -0.7008     1.6281 C.ar    
   6 C6             0.2743     0.6392     1.9067 C.ar    
   7 C7             0.4548     1.5874     0.9170 C.ar    
   8 C8             1.0636    -2.5558     0.0561 C.3     
   9 C9             0.6793    -3.4067     1.2478 C.2     
  10 C10            0.2604    -2.9688    -1.1788 C.3     
  11 C11           -1.1894    -2.6096    -0.9784 C.2     
  12 N12           -2.1073    -2.9759    -1.8947 N.am    
  13 O13           -1.5301    -1.9909     0.0075 O.2     
  14 C14           -3.5074    -2.5413    -1.7762 C.3     
  15 C15           -3.9390    -1.9207    -3.1092 C.3     
  16 N16           -3.6737    -2.8716    -4.1970 N.3     
  17 C17           -2.2368    -3.1500    -4.3229 C.3     
  18 C18           -1.7343    -3.8159    -3.0430 C.3     
  19 N19           -4.2236    -2.3915    -5.4545 N.3     
  20 C20           -3.9582    -3.3427    -6.5427 C.3     
  21 C21           -4.6197    -2.8406    -7.8283 C.3     
  22 N22           -4.0950    -1.5080    -8.1579 N.3     
  23 C23           -4.3604    -0.5568    -7.0696 C.3     
  24 C24           -3.6989    -1.0589    -5.7841 C.3     
  25 C25           -4.6506    -1.0229    -9.4283 C.3     
  26 O26           -0.4200    -3.4817     1.7548 O.2     
  27 N27            1.7845    -4.0637     1.6379 N.am    
  28 C28            2.5336    -2.8450    -0.1437 C.ar    
  29 C29            2.8903    -3.7565     0.8423 C.ar    
  30 C30            3.4612    -2.3900    -1.0538 C.ar    
  31 C31            4.7695    -2.8422    -0.9922 C.ar    
  32 C32            5.1378    -3.7520    -0.0126 C.ar    
  33 C33            4.2066    -4.2083     0.9004 C.ar    
  34 F34            6.4129    -4.1941     0.0492 F       
  35 C35            1.4547    -6.7182     2.2855 C.ar    
  36 C36            0.2002    -6.9785     1.7540 C.ar    
  37 C37            2.4115    -7.7145     2.3151 C.ar    
  38 C38            2.1194    -8.9699     1.8152 C.ar    
  39 C39            0.8695    -9.2320     1.2848 C.ar    
  40 C40           -0.0905    -8.2394     1.2533 C.ar    
  41 H41            0.6438   -10.2135     0.8949 H       
  42 O42           -0.7427    -6.0002     1.7241 O.3     
  43 C43           -2.0121    -6.3396     1.1624 C.3     
  44 C44           -2.9355    -5.1208     1.2153 C.3     
  45 S45            1.8303    -5.1161     2.9156 S.o2    
  46 O46            3.1828    -5.1624     3.3492 O.2     
  47 O47            0.7523    -4.7579     3.7694 O.2     
  48 O48            1.4018    -0.5312    -1.8851 O.3     
  49 C49            1.4864     0.4901    -2.8810 C.3     
  50 C50            2.0054    -0.1134    -4.1876 C.3     
  51 F51            3.2324    -0.7439    -3.9551 F       
  52 F52            1.0834    -1.0498    -4.6674 F       
  53 H53            0.9773     1.9394    -1.1255 H       
  54 H54            0.3306    -1.4396     2.4031 H       
  55 H55           -0.0215     0.9455     2.8992 H       
  56 H56            0.2999     2.6333     1.1371 H       
  57 H57            0.6463    -2.4470    -2.0545 H       
  58 H58            0.3508    -4.0448    -1.3279 H       
  59 H59           -4.1396    -3.4001    -1.5504 H       
  60 H60           -3.5947    -1.8000    -0.9819 H       
  61 H61           -5.0045    -1.6934    -3.0766 H       
  62 H62           -3.3761    -1.0035    -3.2825 H       
  63 H63           -2.0679    -3.8142    -5.1705 H       
  64 H64           -1.6977    -2.2157    -4.4794 H       
  65 H65           -0.6501    -3.9198    -3.0857 H       
  66 H66           -2.1951    -4.7978    -2.9358 H       
  67 H67           -2.8826    -3.4283    -6.6967 H       
  68 H68           -4.3671    -4.3185    -6.2805 H       
  69 H69           -4.3999    -3.5298    -8.6436 H       
  70 H70           -5.6984    -2.7810    -7.6829 H       
  71 H71           -3.9515     0.4190    -7.3318 H       
  72 H72           -5.4361    -0.4712    -6.9156 H       
  73 H73           -3.9187    -0.3697    -4.9688 H       
  74 H74           -2.6203    -1.1185    -5.9294 H       
  75 H75           -5.7361    -0.9617    -9.3503 H       
  76 H76           -4.2458    -0.0351    -9.6482 H       
  77 H77           -4.3821    -1.7121   -10.2290 H       
  78 H78            3.1693    -1.6817    -1.8150 H       
  79 H79            4.5001    -4.9166     1.6611 H       
  80 H80            3.3884    -7.5124     2.7288 H       
  81 H81            2.8689    -9.7472     1.8386 H       
  82 H82           -1.0668    -8.4448     0.8396 H       
  83 H83           -1.8794    -6.6503     0.1261 H       
  84 H84           -2.4551    -7.1561     1.7326 H       
  85 H85           -3.9037    -5.3797     0.7868 H       
  86 H86           -3.0681    -4.8102     2.2516 H       
  87 H87           -2.4924    -4.3044     0.6450 H       
  88 H88            0.4981     0.9192    -3.0463 H       
  89 H89            2.1694     1.2701    -2.5445 H       
  90 H90            2.1375     0.6776    -4.9259 H       
@<TRIPOS>BOND
   1    1   31 1
   2    2    3 ar
   3    2    7 ar
   4    2   53 1
   5    3    4 ar
   6    3   48 1
   7    4    5 ar
   8    4    8 1
   9    5    6 ar
  10    5   54 1
  11    6    7 ar
  12    6   55 1
  13    7   56 1
  14    8    9 1
  15    8   10 1
  16    8   28 1
  17    9   26 2
  18    9   27 am
  19   10   11 1
  20   10   57 1
  21   10   58 1
  22   11   12 am
  23   11   13 2
  24   12   14 1
  25   12   18 1
  26   14   15 1
  27   14   59 1
  28   14   60 1
  29   15   16 1
  30   15   61 1
  31   15   62 1
  32   16   17 1
  33   16   19 1
  34   17   18 1
  35   17   63 1
  36   17   64 1
  37   18   65 1
  38   18   66 1
  39   19   20 1
  40   19   24 1
  41   20   21 1
  42   20   67 1
  43   20   68 1
  44   21   22 1
  45   21   69 1
  46   21   70 1
  47   22   23 1
  48   22   25 1
  49   23   24 1
  50   23   71 1
  51   23   72 1
  52   24   73 1
  53   24   74 1
  54   25   75 1
  55   25   76 1
  56   25   77 1
  57   27   45 am
  58   27   29 1
  59   28   29 ar
  60   28   30 ar
  61   29   33 ar
  62   30   31 ar
  63   30   78 1
  64   31   32 ar
  65   32   33 ar
  66   32   34 1
  67   33   79 1
  68   35   36 ar
  69   35   37 ar
  70   35   45 1
  71   36   42 1
  72   36   40 ar
  73   37   38 ar
  74   37   80 1
  75   38   39 ar
  76   38   81 1
  77   39   40 ar
  78   39   41 1
  79   40   82 1
  80   42   43 1
  81   43   44 1
  82   43   83 1
  83   43   84 1
  84   44   85 1
  85   44   86 1
  86   44   87 1
  87   45   46 2
  88   45   47 2
  89   48   49 1
  90   49   50 1
  91   49   88 1
  92   49   89 1
  93   50   51 1
  94   50   52 1
  95   50   90 1

#	End of record

