#	Name: ASD08830021
#	Creating user name:	WinNT
#	Creation time:	15. 06. 2019 21:19

#	Modifying user name:	WinNT
#	Modification time:	15. 06. 2019 21:19

#	Program:	/corina/corina34_cracker 3.40 0067  02.08.2006

@<TRIPOS>MOLECULE
ASD08830021
  46   48    0    0    0
SMALL
NO_CHARGES


@<TRIPOS>ATOM
   1 C1            -0.0172     1.4144     0.0098 C.ar    
   2 C2             0.0021    -0.0041     0.0020 C.ar    
   3 C3             1.1959     2.1287     0.0021 C.ar    
   4 C4             2.3769     1.4621    -0.0133 C.ar    
   5 C5             2.4108     0.0535    -0.0217 C.ar    
   6 C6             1.2315    -0.6786    -0.0139 C.ar    
   7 C7             3.7045    -0.6459    -0.0393 C.2     
   8 C8             4.9879     0.1439    -0.0483 C.3     
   9 C9             6.1781    -0.8173    -0.0663 C.3     
  10 N10            7.4292    -0.0475    -0.0751 N.3     
  11 O11            3.7384    -1.8581    -0.0465 O.2     
  12 C12           -1.2511     2.0843     0.0194 C.ar    
  13 C13           -1.2141    -0.7105     0.0099 C.ar    
  14 C14           -2.3907    -0.0259     0.0249 C.ar    
  15 C15           -2.4091     1.3672     0.0210 C.ar    
  16 C16            8.5962    -0.9396    -0.0925 C.3     
  17 C17            9.8773    -0.1033    -0.1012 C.3     
  18 C18           11.0929    -1.0282     0.0065 C.3     
  19 C19            9.9626     0.6885    -1.4090 C.3     
  20 C20           11.2748     1.4755    -1.4385 C.3     
  21 N21           12.4069     0.5462    -1.3333 N.3     
  22 C22           12.3723    -0.1914    -0.0640 C.3     
  23 H23            1.1860     3.2087     0.0080 H       
  24 H24            3.3029     2.0179    -0.0195 H       
  25 H25            1.2604    -1.7581    -0.0203 H       
  26 H26            5.0187     0.7770    -0.9350 H       
  27 H27            5.0375     0.7668     0.8448 H       
  28 H28            6.1473    -1.4504     0.8205 H       
  29 H29            6.1285    -1.4403    -0.9594 H       
  30 H30            7.4532     0.5945    -0.8531 H       
  31 H31           -1.2819     3.1638     0.0257 H       
  32 H32           -1.2146    -1.7904     0.0038 H       
  33 H33           -3.3233    -0.5705     0.0306 H       
  34 H34           -3.3559     1.8865     0.0335 H       
  35 H35            8.5821    -1.5735     0.7941 H       
  36 H36            8.5634    -1.5634    -0.9857 H       
  37 H37            9.8682     0.5860     0.7431 H       
  38 H38           11.0599    -1.5634     0.9555 H       
  39 H39           11.0800    -1.7434    -0.8160 H       
  40 H40            9.9320     0.0004    -2.2537 H       
  41 H41            9.1222     1.3798    -1.4713 H       
  42 H42           11.3452     2.0293    -2.3747 H       
  43 H43           11.2987     2.1732    -0.6014 H       
  44 H44           12.4294    -0.0867    -2.1188 H       
  45 H45           12.3911     0.5141     0.7666 H       
  46 H46           13.2398    -0.8484    -0.0020 H       
@<TRIPOS>BOND
   1    1    2 ar
   2    1    3 ar
   3    1   12 ar
   4    2   13 ar
   5    2    6 ar
   6    3    4 ar
   7    3   23 1
   8    4    5 ar
   9    4   24 1
  10    5    6 ar
  11    5    7 1
  12    6   25 1
  13    7    8 1
  14    7   11 2
  15    8    9 1
  16    8   26 1
  17    8   27 1
  18    9   10 1
  19    9   28 1
  20    9   29 1
  21   10   16 1
  22   10   30 1
  23   12   15 ar
  24   12   31 1
  25   13   14 ar
  26   13   32 1
  27   14   15 ar
  28   14   33 1
  29   15   34 1
  30   16   17 1
  31   16   35 1
  32   16   36 1
  33   17   18 1
  34   17   19 1
  35   17   37 1
  36   18   22 1
  37   18   38 1
  38   18   39 1
  39   19   20 1
  40   19   40 1
  41   19   41 1
  42   20   21 1
  43   20   42 1
  44   20   43 1
  45   21   22 1
  46   21   44 1
  47   22   45 1
  48   22   46 1

#	End of record

