#	Name: ASD01920087
#	Creating user name:	WinNT
#	Creation time:	15. 06. 2019 20:11

#	Modifying user name:	WinNT
#	Modification time:	15. 06. 2019 20:11

#	Program:	/corina/corina34_cracker 3.40 0067  02.08.2006

@<TRIPOS>MOLECULE
ASD01920087
  44   46    0    0    0
SMALL
NO_CHARGES


@<TRIPOS>ATOM
   1 C1            -0.3021     1.4142    -0.2717 C.2     
   2 C2            -0.4116    -0.0408    -0.4931 C.ar    
   3 C3             0.7199    -0.8537    -0.3796 C.ar    
   4 C4             0.6121    -2.2147    -0.5873 C.ar    
   5 C5            -0.6235    -2.7750    -0.9094 C.ar    
   6 C6            -1.7468    -1.9677    -1.0225 C.ar    
   7 C7            -1.6472    -0.6094    -0.8109 C.ar    
   8 O8             0.7732     1.9071     0.0098 O.2     
   9 N9            -1.3930     2.1973    -0.3870 N.am    
  10 C10           -1.3141     3.5575    -0.0701 C.ar    
  11 C11           -2.3354     4.1655     0.6600 C.ar    
  12 C12           -2.2536     5.5139     0.9727 C.ar    
  13 C13           -1.1621     6.2547     0.5618 C.ar    
  14 C14           -0.1447     5.6524    -0.1647 C.ar    
  15 C15           -0.2178     4.3032    -0.4762 C.ar    
  16 O16            0.9272     6.3849    -0.5674 O.3     
  17 C17            0.9399     7.7678    -0.2076 C.3     
  18 F18            0.9050     7.8876     1.1858 F       
  19 F19            2.1054     8.3665    -0.6980 F       
  20 F20           -0.1780     8.4034    -0.7585 F       
  21 N21           -3.4445     3.4135     1.0772 N.pl3   
  22 N22           -3.6209     2.0267     0.9414 N.2     
  23 C23           -4.7869     1.7412     1.4606 C.2     
  24 N24           -5.3473     2.8629     1.9109 N.2     
  25 C25           -4.5490     3.8770     1.6927 C.2     
  26 O26           -0.7279    -4.1136    -1.1133 O.3     
  27 C27           -2.0232    -4.6210    -1.4401 C.3     
  28 O28            1.7110    -3.0084    -0.4780 O.3     
  29 C29            2.9441    -2.3671    -0.1458 C.3     
  30 H30            1.6763    -0.4183    -0.1304 H       
  31 H31           -2.7018    -2.4054    -1.2729 H       
  32 H32           -2.5238     0.0159    -0.8948 H       
  33 H33           -2.2327     1.8177    -0.6897 H       
  34 H34           -3.0440     5.9856     1.5377 H       
  35 H35           -1.1007     7.3048     0.8062 H       
  36 H36            0.5765     3.8344    -1.0381 H       
  37 H37           -5.2247     0.7555     1.5154 H       
  38 H38           -4.7431     4.9058     1.9577 H       
  39 H39           -1.9665    -5.7009    -1.5766 H       
  40 H40           -2.7174    -4.3929    -0.6313 H       
  41 H41           -2.3736    -4.1561    -2.3616 H       
  42 H42            3.7378    -3.1121    -0.0904 H       
  43 H43            3.1890    -1.6315    -0.9120 H       
  44 H44            2.8459    -1.8684     0.8185 H       
@<TRIPOS>BOND
   1    1    2 1
   2    1    8 2
   3    1    9 am
   4    2    3 ar
   5    2    7 ar
   6    3    4 ar
   7    3   30 1
   8    4    5 ar
   9    4   28 1
  10    5    6 ar
  11    5   26 1
  12    6    7 ar
  13    6   31 1
  14    7   32 1
  15    9   10 1
  16    9   33 1
  17   10   11 ar
  18   10   15 ar
  19   11   12 ar
  20   11   21 1
  21   12   13 ar
  22   12   34 1
  23   13   14 ar
  24   13   35 1
  25   14   15 ar
  26   14   16 1
  27   15   36 1
  28   16   17 1
  29   17   18 1
  30   17   19 1
  31   17   20 1
  32   21   22 1
  33   21   25 1
  34   22   23 2
  35   23   24 1
  36   23   37 1
  37   24   25 2
  38   25   38 1
  39   26   27 1
  40   27   39 1
  41   27   40 1
  42   27   41 1
  43   28   29 1
  44   29   42 1
  45   29   43 1
  46   29   44 1

#	End of record

