#	Name: ASD03331098
#	Creating user name:	WinNT
#	Creation time:	15. 06. 2019 20:38

#	Modifying user name:	WinNT
#	Modification time:	15. 06. 2019 20:38

#	Program:	/corina/corina34_cracker 3.40 0067  02.08.2006

@<TRIPOS>MOLECULE
ASD03331098
  60   62    0    0    0
SMALL
NO_CHARGES


@<TRIPOS>ATOM
   1 N1             0.0598     1.1546    -0.7665 N.pl3   
   2 C2             0.0644    -0.1788    -0.4993 C.2     
   3 C3             1.2856    -1.0114    -0.2086 C.3     
   4 N4             2.1196    -0.3145     0.7830 N.3     
   5 C5             3.0711     0.5896     0.1342 C.3     
   6 C6             2.4733     1.1929    -1.1337 C.3     
   7 C7             1.2384     2.0257    -0.7792 C.3     
   8 C8            -1.2334     1.5194    -1.0043 C.2     
   9 N9            -1.9982     0.4608    -0.8720 N.2     
  10 C10           -1.2277    -0.6039    -0.5574 C.2     
  11 C11           -1.7012    -1.9790    -0.3204 C.2     
  12 O12           -0.9062    -2.8566    -0.0432 O.2     
  13 N13           -3.0154    -2.2642    -0.4107 N.am    
  14 C14           -4.7915    -3.8446    -0.8973 C.2     
  15 C15           -3.4861    -3.6313    -0.1750 C.3     
  16 C16           -3.6921    -3.8482     1.3254 C.3     
  17 C17           -4.7884    -2.9082     1.8309 C.3     
  18 O18           -5.4264    -2.8915    -1.2966 O.2     
  19 C19           -4.1073    -5.2988     1.5788 C.3     
  20 C20           -2.3865    -3.5545     2.0671 C.3     
  21 N21           -5.2534    -5.0945    -1.0994 N.am    
  22 C22           -6.5600    -5.2996    -1.7293 C.3     
  23 C23           -6.8429    -6.7991    -1.8403 C.3     
  24 C24           -1.6961     2.8799    -1.3525 C.ar    
  25 C25           -2.5966     3.0667    -2.4050 C.ar    
  26 C26           -3.0256     4.3404    -2.7252 C.ar    
  27 C27           -2.5643     5.4303    -2.0055 C.ar    
  28 C28           -1.6703     5.2499    -0.9606 C.ar    
  29 C29           -1.2398     3.9815    -0.6279 C.ar    
  30 F30           -2.9865     6.6738    -2.3229 F       
  31 F31           -3.0462     2.0042    -3.1079 F       
  32 Cl32          -1.0966     6.6219    -0.0649 Cl      
  33 H33            0.9804    -1.9798     0.1881 H       
  34 H34            1.8551    -1.1558    -1.1267 H       
  35 H35            1.5487     0.1806     1.4516 H       
  36 H36            3.3305     1.3920     0.8247 H       
  37 H37            3.9731     0.0348    -0.1240 H       
  38 H38            3.2143     1.8305    -1.6157 H       
  39 H39            2.1869     0.3923    -1.8157 H       
  40 H40            1.1030     2.8113    -1.5226 H       
  41 H41            1.3713     2.4735     0.2057 H       
  42 H42           -3.6495    -1.5642    -0.6318 H       
  43 H43           -2.7455    -4.3397    -0.5463 H       
  44 H44           -5.7185    -3.1175     1.3025 H       
  45 H45           -4.9351    -3.0627     2.8998 H       
  46 H46           -4.4926    -1.8748     1.6504 H       
  47 H47           -3.3164    -5.9677     1.2395 H       
  48 H48           -4.2762    -5.4474     2.6453 H       
  49 H49           -5.0252    -5.5148     1.0320 H       
  50 H50           -2.0907    -2.5210     1.8867 H       
  51 H51           -2.5333    -3.7090     3.1361 H       
  52 H52           -1.6055    -4.2241     1.7071 H       
  53 H53           -4.7206    -5.8583    -0.8279 H       
  54 H54           -7.3335    -4.8279    -1.1233 H       
  55 H55           -6.5572    -4.8557    -2.7248 H       
  56 H56           -6.0694    -7.2709    -2.4463 H       
  57 H57           -6.8457    -7.2430    -0.8448 H       
  58 H58           -7.8151    -6.9518    -2.3089 H       
  59 H59           -3.7214     4.4865    -3.5382 H       
  60 H60           -0.5474     3.8422     0.1892 H       
@<TRIPOS>BOND
   1    1    2 1
   2    1    7 1
   3    1    8 1
   4    2    3 1
   5    2   10 2
   6    3    4 1
   7    3   33 1
   8    3   34 1
   9    4    5 1
  10    4   35 1
  11    5    6 1
  12    5   36 1
  13    5   37 1
  14    6    7 1
  15    6   38 1
  16    6   39 1
  17    7   40 1
  18    7   41 1
  19    8    9 2
  20    8   24 1
  21    9   10 1
  22   10   11 1
  23   11   12 2
  24   11   13 am
  25   13   15 1
  26   13   42 1
  27   14   18 2
  28   14   21 am
  29   14   15 1
  30   15   16 1
  31   15   43 1
  32   16   17 1
  33   16   19 1
  34   16   20 1
  35   17   44 1
  36   17   45 1
  37   17   46 1
  38   19   47 1
  39   19   48 1
  40   19   49 1
  41   20   50 1
  42   20   51 1
  43   20   52 1
  44   21   22 1
  45   21   53 1
  46   22   23 1
  47   22   54 1
  48   22   55 1
  49   23   56 1
  50   23   57 1
  51   23   58 1
  52   24   25 ar
  53   24   29 ar
  54   25   26 ar
  55   25   31 1
  56   26   27 ar
  57   26   59 1
  58   27   28 ar
  59   27   30 1
  60   28   29 ar
  61   28   32 1
  62   29   60 1

#	End of record

