#	Name: ASD02408447
#	Creating user name:	WinNT
#	Creation time:	15. 06. 2019 20:21

#	Modifying user name:	WinNT
#	Modification time:	15. 06. 2019 20:21

#	Program:	/corina/corina34_cracker 3.40 0067  02.08.2006

@<TRIPOS>MOLECULE
ASD02408447
  48   50    0    0    0
SMALL
NO_CHARGES


@<TRIPOS>ATOM
   1 C1            -0.0170     1.3996     0.0097 C.2     
   2 C2             0.0021    -0.0041     0.0020 C.2     
   3 N3            -1.2942    -0.4096     0.0118 N.pl3   
   4 N4            -2.1111     0.7280     0.0254 N.2     
   5 C5            -1.3664     1.7991     0.0192 C.2     
   6 C6            -1.7585    -1.7991     0.0078 C.3     
   7 C7            -2.5924    -2.0617     1.2634 C.3     
   8 C8            -2.9726    -3.5425     1.3226 C.3     
   9 C9            -1.7499    -1.9058    -2.4883 C.3     
  10 C10           -2.6159    -2.0468    -1.2349 C.3     
  11 C11            1.2638     2.1063     0.0013 C.2     
  12 N12            2.3912     1.3572    -0.0135 N.am    
  13 N13            1.1828    -0.6424    -0.0123 N.2     
  14 O14            1.3139     3.3236     0.0070 O.2     
  15 C15            2.3124     0.0027    -0.0200 C.2     
  16 C16            3.5931    -0.7914    -0.0370 C.3     
  17 C17            3.2664    -2.2861    -0.0418 C.3     
  18 C18            4.5601    -3.0904    -0.1848 C.3     
  19 C19            2.5750    -2.6613     1.2704 C.3     
  20 C20            2.2483    -4.1560     1.2656 C.3     
  21 C21            3.5419    -4.9603     1.1227 C.3     
  22 C22            4.2334    -4.5852    -0.1896 C.3     
  23 H23           -1.7241     2.8181     0.0267 H       
  24 H24           -0.8990    -2.4693    -0.0042 H       
  25 H25           -2.0105    -1.8004     2.1473 H       
  26 H26           -3.4975    -1.4552     1.2319 H       
  27 H27           -3.5667    -3.7296     2.2171 H       
  28 H28           -3.5545    -3.8038     0.4387 H       
  29 H29           -2.0675    -4.1491     1.3541 H       
  30 H30           -2.3607    -2.0823    -3.3737 H       
  31 H31           -1.3319    -0.9000    -2.5299 H       
  32 H32           -0.9401    -2.6347    -2.4544 H       
  33 H33           -3.0339    -3.0526    -1.1933 H       
  34 H34           -3.4256    -1.3179    -1.2689 H       
  35 H35            3.2590     1.7906    -0.0198 H       
  36 H36            4.1638    -0.5413    -0.9314 H       
  37 H37            4.1815    -0.5509     0.8485 H       
  38 H38            2.6046    -2.5107    -0.8783 H       
  39 H39            5.0527    -2.8232    -1.1196 H       
  40 H40            5.2218    -2.8659     0.6517 H       
  41 H41            3.2367    -2.4367     2.1069 H       
  42 H42            1.6534    -2.0882     1.3723 H       
  43 H43            1.7557    -4.4232     2.2005 H       
  44 H44            1.5865    -4.3805     0.4291 H       
  45 H45            4.2037    -4.7357     1.9592 H       
  46 H46            3.3092    -6.0251     1.1193 H       
  47 H47            3.5716    -4.8097    -1.0261 H       
  48 H48            5.1550    -5.1582    -0.2914 H       
@<TRIPOS>BOND
   1    1    2 2
   2    1   11 1
   3    1    5 1
   4    2    3 1
   5    2   13 1
   6    3    4 1
   7    3    6 1
   8    4    5 2
   9    5   23 1
  10    6    7 1
  11    6   10 1
  12    6   24 1
  13    7    8 1
  14    7   25 1
  15    7   26 1
  16    8   27 1
  17    8   28 1
  18    8   29 1
  19    9   10 1
  20    9   30 1
  21    9   31 1
  22    9   32 1
  23   10   33 1
  24   10   34 1
  25   11   12 am
  26   11   14 2
  27   12   15 1
  28   12   35 1
  29   13   15 2
  30   15   16 1
  31   16   17 1
  32   16   36 1
  33   16   37 1
  34   17   18 1
  35   17   19 1
  36   17   38 1
  37   18   22 1
  38   18   39 1
  39   18   40 1
  40   19   20 1
  41   19   41 1
  42   19   42 1
  43   20   21 1
  44   20   43 1
  45   20   44 1
  46   21   22 1
  47   21   45 1
  48   21   46 1
  49   22   47 1
  50   22   48 1

#	End of record

