#	Name: ASD00530001
#	Creating user name:	WinNT
#	Creation time:	15. 06. 2019 18:36

#	Modifying user name:	WinNT
#	Modification time:	15. 06. 2019 18:36

#	Program:	/corina/corina34_cracker 3.40 0067  02.08.2006

@<TRIPOS>MOLECULE
ASD00530001
  27   28    0    0    0
SMALL
NO_CHARGES


@<TRIPOS>ATOM
   1 C1            -0.0168     1.3866     0.0097 C.ar    
   2 C2             0.0021    -0.0041     0.0020 C.ar    
   3 C3            -1.1732    -0.7216     0.0089 C.ar    
   4 C4            -2.3933    -0.0520     0.0242 C.ar    
   5 C5            -2.4108     1.3565     0.0324 C.ar    
   6 C6            -1.2026     2.0654     0.0303 C.ar    
   7 N7            -3.7010    -0.4793     0.0344 N.pl3   
   8 C8            -4.5297     0.6259     0.0488 C.2     
   9 C9            -3.7701     1.7525     0.0478 C.2     
  10 F10            1.1473     2.0722     0.0022 F       
  11 C11           -5.9997     0.5889     0.0628 C.2     
  12 N12           -6.6440    -0.5949     0.0623 N.am    
  13 O13           -6.6341     1.6268     0.0749 O.2     
  14 C14           -8.1085    -0.6317     0.0764 C.3     
  15 C15           -8.5821    -2.0865     0.0726 C.3     
  16 S16          -10.3955    -2.1321     0.0900 S.3     
  17 H17            0.9474    -0.5261    -0.0098 H       
  18 H18           -1.1484    -1.8013     0.0022 H       
  19 H19           -1.2083     3.1454     0.0366 H       
  20 H20           -3.9931    -1.4042     0.0317 H       
  21 H21           -4.1374     2.7681     0.0577 H       
  22 H22           -6.1382    -1.4224     0.0527 H       
  23 H23           -8.4760    -0.1322     0.9728 H       
  24 H24           -8.4933    -0.1221    -0.8070 H       
  25 H25           -8.2147    -2.5860    -0.8238 H       
  26 H26           -8.1974    -2.5961     0.9560 H       
  27 H27          -10.6651    -3.4498     0.0851 H       
@<TRIPOS>BOND
   1    1    2 ar
   2    1   10 1
   3    1    6 ar
   4    2    3 ar
   5    2   17 1
   6    3    4 ar
   7    3   18 1
   8    4    5 ar
   9    4    7 1
  10    5    6 ar
  11    5    9 1
  12    6   19 1
  13    7    8 1
  14    7   20 1
  15    8    9 2
  16    8   11 1
  17    9   21 1
  18   11   12 am
  19   11   13 2
  20   12   14 1
  21   12   22 1
  22   14   15 1
  23   14   23 1
  24   14   24 1
  25   15   16 1
  26   15   25 1
  27   15   26 1
  28   16   27 1

#	End of record

