#	Name: ASD01911217
#	Creating user name:	WinNT
#	Creation time:	15. 06. 2019 19:57

#	Modifying user name:	WinNT
#	Modification time:	15. 06. 2019 19:57

#	Program:	/corina/corina34_cracker 3.40 0067  02.08.2006

@<TRIPOS>MOLECULE
ASD01911217
  27   28    0    0    0
SMALL
NO_CHARGES


@<TRIPOS>ATOM
   1 C1            -0.0167     1.3811     0.0096 C.ar    
   2 C2             0.0021    -0.0041     0.0020 C.ar    
   3 N3             1.1380    -0.6678    -0.0120 N.ar    
   4 C4             2.3111    -0.0427    -0.0198 C.ar    
   5 C5             2.3684     1.3584    -0.0128 C.ar    
   6 C6             1.1800     2.0796     0.0020 C.ar    
   7 C7            -1.2998    -0.7630     0.0104 C.3     
   8 O8             3.5646     2.0000    -0.0199 O.3     
   9 N9             3.4670    -0.7691    -0.0343 N.2     
  10 N10            3.4186    -2.0582    -0.0403 N.2     
  11 C11            4.5754    -2.7851    -0.0548 C.ar    
  12 C12            4.5270    -4.1822    -0.0614 C.ar    
  13 C13            5.6987    -4.9091    -0.0765 C.ar    
  14 C14            6.9205    -4.2589    -0.0847 C.ar    
  15 C15            6.9764    -2.8760    -0.0782 C.ar    
  16 C16            5.8131    -2.1355    -0.0690 C.ar    
  17 H17           -0.9569     1.9125     0.0170 H       
  18 H18            1.1893     3.1596     0.0073 H       
  19 H19           -1.6235    -0.9405    -1.0152 H       
  20 H20           -1.1606    -1.7176     0.5178 H       
  21 H21           -2.0570    -0.1799     0.5346 H       
  22 H22            3.9035     2.1906    -0.9053 H       
  23 H23            3.5743    -4.6909    -0.0543 H       
  24 H24            5.6630    -5.9885    -0.0816 H       
  25 H25            7.8348    -4.8335    -0.0958 H       
  26 H26            7.9334    -2.3756    -0.0847 H       
  27 H27            5.8582    -1.0565    -0.0642 H       
@<TRIPOS>BOND
   1    1    2 ar
   2    1    6 ar
   3    1   17 1
   4    2    3 ar
   5    2    7 1
   6    3    4 ar
   7    4    5 ar
   8    4    9 1
   9    5    6 ar
  10    5    8 1
  11    6   18 1
  12    7   19 1
  13    7   20 1
  14    7   21 1
  15    8   22 1
  16    9   10 2
  17   10   11 1
  18   11   12 ar
  19   11   16 ar
  20   12   13 ar
  21   12   23 1
  22   13   14 ar
  23   13   24 1
  24   14   15 ar
  25   14   25 1
  26   15   16 ar
  27   15   26 1
  28   16   27 1

#	End of record

