#	Name: ASD01908038
#	Creating user name:	WinNT
#	Creation time:	15. 06. 2019 19:54

#	Modifying user name:	WinNT
#	Modification time:	15. 06. 2019 19:54

#	Program:	/corina/corina34_cracker 3.40 0067  02.08.2006

@<TRIPOS>MOLECULE
ASD01908038
  33   35    0    0    0
SMALL
NO_CHARGES


@<TRIPOS>ATOM
   1 S1            -0.0211     1.7043     0.0114 S.3     
   2 C2             0.0021    -0.0041     0.0020 C.2     
   3 N3             1.2145    -0.4491    -0.0119 N.2     
   4 C4             2.1879     0.4408    -0.0165 C.2     
   5 C5             1.7402     1.7452    -0.0052 C.2     
   6 C6             2.5588     2.9201    -0.0074 C.1     
   7 N7             3.2081     3.8522    -0.0092 N.1     
   8 N8             5.5109    -0.9755     0.3289 N.pl3   
   9 N9             5.7776     0.1430    -0.4696 N.2     
  10 C10            4.6555     0.7748    -0.6890 C.2     
  11 C11            3.6234     0.0746    -0.0317 C.2     
  12 C12            4.1888    -1.0036     0.5884 C.2     
  13 C13            6.4984    -1.9513     0.7968 C.3     
  14 C14            7.2470    -2.5140    -0.3839 C.ar    
  15 C15            8.4045    -1.8990    -0.8240 C.ar    
  16 C16            9.0926    -2.4128    -1.9061 C.ar    
  17 C17            8.6213    -3.5470    -2.5512 C.ar    
  18 C18            7.4596    -4.1622    -2.1077 C.ar    
  19 C19            6.7783    -3.6477    -1.0216 C.ar    
  20 O20            9.2961    -4.0542    -3.6162 O.3     
  21 C21            8.7526    -5.2239    -4.2314 C.3     
  22 Br22          -1.5410    -1.0971     0.0109 Br      
  23 H23            4.5388     1.6765    -1.2720 H       
  24 H24            3.6702    -1.7443     1.1791 H       
  25 H25            7.2002    -1.4625     1.4726 H       
  26 H26            5.9899    -2.7591     1.3231 H       
  27 H27            8.7709    -1.0159    -0.3216 H       
  28 H28            9.9965    -1.9319    -2.2497 H       
  29 H29            7.0907    -5.0452    -2.6083 H       
  30 H30            5.8765    -4.1290    -0.6730 H       
  31 H31            9.3863    -5.5231    -5.0663 H       
  32 H32            8.7088    -6.0316    -3.5008 H       
  33 H33            7.7483    -5.0092    -4.5964 H       
@<TRIPOS>BOND
   1    1    2 1
   2    1    5 1
   3    2    3 2
   4    2   22 1
   5    3    4 1
   6    4    5 2
   7    4   11 1
   8    5    6 1
   9    6    7 3
  10    8    9 1
  11    8   12 1
  12    8   13 1
  13    9   10 2
  14   10   11 1
  15   10   23 1
  16   11   12 2
  17   12   24 1
  18   13   14 1
  19   13   25 1
  20   13   26 1
  21   14   15 ar
  22   14   19 ar
  23   15   16 ar
  24   15   27 1
  25   16   17 ar
  26   16   28 1
  27   17   18 ar
  28   17   20 1
  29   18   19 ar
  30   18   29 1
  31   19   30 1
  32   20   21 1
  33   21   31 1
  34   21   32 1
  35   21   33 1

#	End of record

