#	Name: ASD01208488
#	Creating user name:	WinNT
#	Creation time:	15. 06. 2019 19:09

#	Modifying user name:	WinNT
#	Modification time:	15. 06. 2019 19:09

#	Program:	/corina/corina34_cracker 3.40 0067  02.08.2006

@<TRIPOS>MOLECULE
ASD01208488
  38   40    0    0    0
SMALL
NO_CHARGES


@<TRIPOS>ATOM
   1 N1            -0.0164     1.4688    -0.0237 N.am    
   2 C2             0.0069    -0.0016    -0.0329 C.3     
   3 C3             1.3385     0.0783    -0.7923 C.3     
   4 C4             1.4525     1.4383    -0.0898 C.3     
   5 O5             2.3108    -0.8812    -0.3727 O.3     
   6 C6             3.2090    -1.2889    -1.4066 C.3     
   7 C7             4.2768    -2.2155    -0.8193 C.3     
   8 C8             5.1993    -2.6959    -1.9438 C.3     
   9 C9             4.3570    -3.3881    -3.0197 C.3     
  10 C10            3.2861    -2.4162    -3.5221 C.3     
  11 O11            2.4827    -1.9845    -2.4219 O.3     
  12 C12           -0.9662     2.4241     0.0201 C.2     
  13 C13           -0.5798     3.8451     0.1374 C.ar    
  14 C14            0.7572     4.1929     0.3428 C.ar    
  15 C15            1.1124     5.5222     0.4511 C.ar    
  16 C16            0.1425     6.5117     0.3561 C.ar    
  17 C17           -1.1848     6.1699     0.1528 C.ar    
  18 C18           -1.5490     4.8450     0.0375 C.ar    
  19 O19           -2.1409     2.1163    -0.0370 O.2     
  20 F20            0.4943     7.8117     0.4626 F       
  21 F21            2.4049     5.8612     0.6502 F       
  22 H22            0.0994    -0.4406     0.9605 H       
  23 H23           -0.7998    -0.4449    -0.6168 H       
  24 H24            1.2323     0.1421    -1.8752 H       
  25 H25            1.8749     2.2193    -0.7219 H       
  26 H26            1.9299     1.3828     0.8885 H       
  27 H27            3.6880    -0.4106    -1.8392 H       
  28 H28            4.8607    -1.6731    -0.0757 H       
  29 H29            3.7961    -3.0742    -0.3506 H       
  30 H30            5.7178    -1.8420    -2.3799 H       
  31 H31            5.9278    -3.4001    -1.5420 H       
  32 H32            4.9983    -3.6843    -3.8498 H       
  33 H33            3.8779    -4.2705    -2.5955 H       
  34 H34            3.7661    -1.5527    -3.9825 H       
  35 H35            2.6565    -2.9173    -4.2573 H       
  36 H36            1.5114     3.4235     0.4170 H       
  37 H37           -1.9352     6.9432     0.0799 H       
  38 H38           -2.5834     4.5808    -0.1254 H       
@<TRIPOS>BOND
   1    1    2 1
   2    1    4 1
   3    1   12 am
   4    2    3 1
   5    2   22 1
   6    2   23 1
   7    3    4 1
   8    3    5 1
   9    3   24 1
  10    4   25 1
  11    4   26 1
  12    5    6 1
  13    6    7 1
  14    6   11 1
  15    6   27 1
  16    7    8 1
  17    7   28 1
  18    7   29 1
  19    8    9 1
  20    8   30 1
  21    8   31 1
  22    9   10 1
  23    9   32 1
  24    9   33 1
  25   10   11 1
  26   10   34 1
  27   10   35 1
  28   12   13 1
  29   12   19 2
  30   13   14 ar
  31   13   18 ar
  32   14   15 ar
  33   14   36 1
  34   15   16 ar
  35   15   21 1
  36   16   17 ar
  37   16   20 1
  38   17   18 ar
  39   17   37 1
  40   18   38 1

#	End of record

