#	Name: ASD02500289
#	Creating user name:	WinNT
#	Creation time:	15. 06. 2019 20:22

#	Modifying user name:	WinNT
#	Modification time:	15. 06. 2019 20:22

#	Program:	/corina/corina34_cracker 3.40 0067  02.08.2006

@<TRIPOS>MOLECULE
ASD02500289
  63   67    0    0    0
SMALL
NO_CHARGES


@<TRIPOS>ATOM
   1 N1            -3.5552     5.5886    -0.0724 N.ar    
   2 C2            -4.6733     6.2300    -0.3109 C.ar    
   3 C3            -5.8125     6.0318     0.4665 C.ar    
   4 C4            -5.7817     5.1493     1.5084 C.ar    
   5 C5            -4.5794     4.4619     1.7612 C.ar    
   6 C6            -4.4719     3.5400     2.8145 C.ar    
   7 C7            -3.2912     2.8956     3.0268 C.ar    
   8 C8            -2.1874     3.1391     2.2125 C.ar    
   9 C9            -2.2565     4.0263     1.1826 C.ar    
  10 C10           -3.4579     4.7113     0.9316 C.ar    
  11 S11           -0.8449     4.3158     0.1685 S.o2    
  12 O12           -0.6802     5.7257     0.1031 O.2     
  13 O13            0.1696     3.4355     0.6322 O.2     
  14 N14           -1.2313     3.8186    -1.3630 N.am    
  15 C15           -1.4391     2.4687    -1.6241 C.ar    
  16 C16           -1.0795     1.9366    -2.8595 C.ar    
  17 C17           -1.2838     0.6013    -3.1209 C.ar    
  18 C18           -1.8532    -0.2215    -2.1444 C.ar    
  19 C19           -2.2132     0.3157    -0.9052 C.ar    
  20 C20           -2.0010     1.6510    -0.6478 C.ar    
  21 C21           -0.4662     2.8243    -3.9117 C.3     
  22 F22           -0.1926     2.0692    -5.0572 F       
  23 F23           -1.3592     3.8521    -4.2329 F       
  24 F24            0.7226     3.3756    -3.4216 F       
  25 C25           -2.0741    -1.6535    -2.4215 C.2     
  26 O26           -2.5056    -2.0039    -3.5030 O.2     
  27 N27           -1.7977    -2.5733    -1.4760 N.am    
  28 C28           -1.9252    -4.0080    -1.7682 C.3     
  29 C29           -0.5897    -4.6929    -1.4530 C.3     
  30 N30           -0.1549    -4.2792    -0.1115 N.am    
  31 C31           -0.0273    -2.8446     0.1807 C.3     
  32 C32           -1.3575    -2.1598    -0.1362 C.3     
  33 C33            0.1215    -5.1991     0.8340 C.2     
  34 C34            0.5571    -4.7691     2.1765 C.ar    
  35 C35            1.9173    -4.5927     2.4519 C.ar    
  36 C36            2.3166    -4.1898     3.7124 C.ar    
  37 C37            1.3757    -3.9611     4.6999 C.ar    
  38 C38            0.0289    -4.1331     4.4363 C.ar    
  39 C39           -0.3882    -4.5300     3.1798 C.ar    
  40 O40            0.0120    -6.3832     0.5807 O.2     
  41 F41           -1.7046    -4.6921     2.9227 F       
  42 F42            2.8380    -4.8160     1.4887 F       
  43 H43           -4.7123     6.9311    -1.1315 H       
  44 H44           -6.7189     6.5759     0.2457 H       
  45 H45           -6.6552     4.9836     2.1214 H       
  46 H46           -5.3205     3.3434     3.4530 H       
  47 H47           -3.2094     2.1865     3.8373 H       
  48 H48           -1.2618     2.6158     2.4017 H       
  49 H49           -1.3127     4.4690    -2.0781 H       
  50 H50           -1.0049     0.1893    -4.0794 H       
  51 H51           -2.6532    -0.3173    -0.1488 H       
  52 H52           -2.2746     2.0656     0.3112 H       
  53 H53           -2.7123    -4.4388    -1.1494 H       
  54 H54           -2.1678    -4.1465    -2.8218 H       
  55 H55           -0.7186    -5.7750    -1.4783 H       
  56 H56            0.1574    -4.3937    -2.1882 H       
  57 H57            0.2152    -2.7060     1.2343 H       
  58 H58            0.7598    -2.4138    -0.4381 H       
  59 H59           -1.2252    -1.0781    -0.1123 H       
  60 H60           -2.1033    -2.4560     0.6015 H       
  61 H61            3.3662    -4.0534     3.9268 H       
  62 H62            1.6945    -3.6468     5.6827 H       
  63 H63           -0.6992    -3.9524     5.2133 H       
@<TRIPOS>BOND
   1    1    2 ar
   2    1   10 ar
   3    2    3 ar
   4    2   43 1
   5    3    4 ar
   6    3   44 1
   7    4    5 ar
   8    4   45 1
   9    5    6 ar
  10    5   10 ar
  11    6    7 ar
  12    6   46 1
  13    7    8 ar
  14    7   47 1
  15    8    9 ar
  16    8   48 1
  17    9   10 ar
  18    9   11 1
  19   11   12 2
  20   11   13 2
  21   11   14 am
  22   14   15 1
  23   14   49 1
  24   15   16 ar
  25   15   20 ar
  26   16   17 ar
  27   16   21 1
  28   17   18 ar
  29   17   50 1
  30   18   19 ar
  31   18   25 1
  32   19   20 ar
  33   19   51 1
  34   20   52 1
  35   21   22 1
  36   21   23 1
  37   21   24 1
  38   25   26 2
  39   25   27 am
  40   27   28 1
  41   27   32 1
  42   28   29 1
  43   28   53 1
  44   28   54 1
  45   29   30 1
  46   29   55 1
  47   29   56 1
  48   30   31 1
  49   30   33 am
  50   31   32 1
  51   31   57 1
  52   31   58 1
  53   32   59 1
  54   32   60 1
  55   33   34 1
  56   33   40 2
  57   34   35 ar
  58   34   39 ar
  59   35   36 ar
  60   35   42 1
  61   36   37 ar
  62   36   61 1
  63   37   38 ar
  64   37   62 1
  65   38   39 ar
  66   38   63 1
  67   39   41 1

#	End of record

