#	Name: ASD01510107
#	Creating user name:	WinNT
#	Creation time:	15. 06. 2019 19:21

#	Modifying user name:	WinNT
#	Modification time:	15. 06. 2019 19:21

#	Program:	/corina/corina34_cracker 3.40 0067  02.08.2006

@<TRIPOS>MOLECULE
ASD01510107
  57   60    0    0    0
SMALL
NO_CHARGES


@<TRIPOS>ATOM
   1 C1            -0.3191     1.2368    -0.9986 C.3     
   2 O2            -0.2646    -0.1743    -0.7799 O.3     
   3 C3             0.5515    -0.6132     0.2123 C.ar    
   4 N4             1.2480     0.2592     0.9212 N.ar    
   5 C5             2.0557    -0.1263     1.8983 C.ar    
   6 C6             2.1994    -1.4711     2.2136 C.ar    
   7 C7             1.4863    -2.4160     1.4935 C.ar    
   8 C8             0.6429    -1.9784     0.4775 C.ar    
   9 S9            -0.2877    -3.1360    -0.4704 S.3     
  10 C10            0.2983    -4.6907     0.1162 C.ar    
  11 C11           -0.3678    -5.3411     1.1487 C.ar    
  12 C12            0.0913    -6.5600     1.6088 C.ar    
  13 C13            1.2131    -7.1369     1.0451 C.ar    
  14 C14            1.8838    -6.4923     0.0125 C.ar    
  15 C15            1.4228    -5.2709    -0.4563 C.ar    
  16 N16            3.0194    -7.0770    -0.5570 N.am    
  17 C17            4.0203    -6.2991    -1.0147 C.2     
  18 O18            3.9794    -5.0956    -0.8486 O.2     
  19 C19            5.1679    -6.9094    -1.7187 C.ar    
  20 C20            6.2062    -6.1066    -2.1941 C.ar    
  21 C21            7.2744    -6.6826    -2.8499 C.ar    
  22 C22            7.3182    -8.0529    -3.0369 C.ar    
  23 C23            6.2921    -8.8543    -2.5686 C.ar    
  24 C24            5.2208    -8.2917    -1.9061 C.ar    
  25 N25            2.7698     0.8291     2.6178 N.3     
  26 C26            2.4775     2.1837     2.1287 C.3     
  27 C27            3.2177     3.2063     2.9940 C.3     
  28 N28            4.6606     2.9320     2.9457 N.3     
  29 C29            4.9529     1.5774     3.4347 C.3     
  30 C30            4.2127     0.5548     2.5694 C.3     
  31 C31            5.4137     3.9396     3.7044 C.3     
  32 H32            0.6752     1.6036    -1.2535 H       
  33 H33           -1.0064     1.4513    -1.8170 H       
  34 H34           -0.6676     1.7318    -0.0922 H       
  35 H35            2.8600    -1.7772     3.0112 H       
  36 H36            1.5803    -3.4681     1.7183 H       
  37 H37           -1.2447    -4.8927     1.5918 H       
  38 H38           -0.4276    -7.0631     2.4113 H       
  39 H39            1.5694    -8.0898     1.4076 H       
  40 H40            1.9420    -4.7682    -1.2588 H       
  41 H41            3.0867    -8.0425    -0.6225 H       
  42 H42            6.1731    -5.0369    -2.0491 H       
  43 H43            8.0783    -6.0626    -3.2185 H       
  44 H44            8.1568    -8.4988    -3.5510 H       
  45 H45            6.3320    -9.9231    -2.7184 H       
  46 H46            4.4207    -8.9184    -1.5407 H       
  47 H47            2.8076     2.2759     1.0941 H       
  48 H48            1.4046     2.3674     2.1862 H       
  49 H49            3.0255     4.2102     2.6153 H       
  50 H50            2.8678     3.1326     4.0237 H       
  51 H51            6.0258     1.3937     3.3773 H       
  52 H52            4.6228     1.4852     4.4694 H       
  53 H53            4.4050    -0.4491     2.9482 H       
  54 H54            4.5626     0.6285     1.5398 H       
  55 H55            5.0903     3.9272     4.7453 H       
  56 H56            6.4786     3.7128     3.6521 H       
  57 H57            5.2311     4.9263     3.2789 H       
@<TRIPOS>BOND
   1    1    2 1
   2    1   32 1
   3    1   33 1
   4    1   34 1
   5    2    3 1
   6    3    4 ar
   7    3    8 ar
   8    4    5 ar
   9    5    6 ar
  10    5   25 1
  11    6    7 ar
  12    6   35 1
  13    7    8 ar
  14    7   36 1
  15    8    9 1
  16    9   10 1
  17   10   11 ar
  18   10   15 ar
  19   11   12 ar
  20   11   37 1
  21   12   13 ar
  22   12   38 1
  23   13   14 ar
  24   13   39 1
  25   14   15 ar
  26   14   16 1
  27   15   40 1
  28   16   17 am
  29   16   41 1
  30   17   18 2
  31   17   19 1
  32   19   20 ar
  33   19   24 ar
  34   20   21 ar
  35   20   42 1
  36   21   22 ar
  37   21   43 1
  38   22   23 ar
  39   22   44 1
  40   23   24 ar
  41   23   45 1
  42   24   46 1
  43   25   26 1
  44   25   30 1
  45   26   27 1
  46   26   47 1
  47   26   48 1
  48   27   28 1
  49   27   49 1
  50   27   50 1
  51   28   29 1
  52   28   31 1
  53   29   30 1
  54   29   51 1
  55   29   52 1
  56   30   53 1
  57   30   54 1
  58   31   55 1
  59   31   56 1
  60   31   57 1

#	End of record

