#	Name: ASD08830257
#	Creating user name:	WinNT
#	Creation time:	15. 06. 2019 21:20

#	Modifying user name:	WinNT
#	Modification time:	15. 06. 2019 21:20

#	Program:	/corina/corina34_cracker 3.40 0067  02.08.2006

@<TRIPOS>MOLECULE
ASD08830257
  57   60    0    0    0
SMALL
NO_CHARGES


@<TRIPOS>ATOM
   1 C1            -0.2395     1.4701     0.1689 C.ar    
   2 C2            -0.2767     0.0943     0.2745 C.ar    
   3 C3             0.9088    -0.6273     0.4090 C.ar    
   4 C4             2.1287     0.0437     0.4361 C.ar    
   5 C5             2.1573     1.4263     0.3289 C.ar    
   6 C6             0.9708     2.1370     0.1956 C.ar    
   7 C7             0.8706    -2.1055     0.5235 C.ar    
   8 C8            -0.1770    -2.7384     1.1999 C.ar    
   9 C9            -0.1698    -4.1206     1.2802 C.ar    
  10 N10            0.8205    -4.7964     0.7191 N.ar    
  11 C11            1.8004    -4.1697     0.0844 C.ar    
  12 N12            1.8299    -2.8504    -0.0205 N.ar    
  13 N13            2.8180    -4.9150    -0.4891 N.pl3   
  14 N14            3.3799     2.1048     0.3560 N.am    
  15 C15            4.4802     1.5323    -0.1713 C.2     
  16 C16            5.7870     2.1946    -0.0431 C.2     
  17 C17            6.8729     1.6295    -0.5636 C.2     
  18 O18            4.3923     0.4678    -0.7532 O.2     
  19 Cl19          -1.4560    -1.8131     1.9220 Cl      
  20 C20            2.8665    -6.3014    -0.2934 C.ar    
  21 C21            3.3533    -7.1276    -1.2977 C.ar    
  22 C22            3.4008    -8.4941    -1.1051 C.ar    
  23 C23            2.9622    -9.0420     0.0932 C.ar    
  24 C24            2.4758    -8.2156     1.0977 C.ar    
  25 C25            2.4332    -6.8487     0.9070 C.ar    
  26 N26            3.0099   -10.4270     0.2883 N.3     
  27 C27            2.5004   -10.7894     1.6183 C.3     
  28 C28            2.4949   -12.3131     1.7618 C.3     
  29 N29            3.8580   -12.8260     1.5654 N.3     
  30 C30            4.3674   -12.4637     0.2355 C.3     
  31 C31            4.3730   -10.9399     0.0920 C.3     
  32 C32            3.9080   -14.2798     1.7702 C.3     
  33 H33           -1.1587     2.0267     0.0606 H       
  34 H34           -1.2244    -0.4233     0.2532 H       
  35 H35            3.0496    -0.5107     0.5405 H       
  36 H36            0.9944     3.2136     0.1123 H       
  37 H37           -0.9632    -4.6417     1.7954 H       
  38 H38            3.4967    -4.4769    -1.0260 H       
  39 H39            3.4360     2.9875     0.7543 H       
  40 H40            5.8650     3.1397     0.4736 H       
  41 H41            7.8325     2.1159    -0.4695 H       
  42 H42            6.7949     0.6843    -1.0803 H       
  43 H43            3.6945    -6.7015    -2.2296 H       
  44 H44            3.7788    -9.1367    -1.8864 H       
  45 H45            2.1346    -8.6417     2.0296 H       
  46 H46            2.0553    -6.2060     1.6883 H       
  47 H47            3.1421   -10.3543     2.3845 H       
  48 H48            1.4855   -10.4095     1.7348 H       
  49 H49            2.1447   -12.5833     2.7580 H       
  50 H50            1.8319   -12.7465     1.0129 H       
  51 H51            5.3824   -12.8436     0.1189 H       
  52 H52            3.7257   -12.8988    -0.5307 H       
  53 H53            4.7232   -10.6698    -0.9042 H       
  54 H54            5.0360   -10.5066     0.8408 H       
  55 H55            3.2442   -14.7701     1.0582 H       
  56 H56            4.9280   -14.6332     1.6188 H       
  57 H57            3.5891   -14.5149     2.7857 H       
@<TRIPOS>BOND
   1    1    2 ar
   2    1    6 ar
   3    1   33 1
   4    2    3 ar
   5    2   34 1
   6    3    4 ar
   7    3    7 1
   8    4    5 ar
   9    4   35 1
  10    5    6 ar
  11    5   14 1
  12    6   36 1
  13    7    8 ar
  14    7   12 ar
  15    8    9 ar
  16    8   19 1
  17    9   10 ar
  18    9   37 1
  19   10   11 ar
  20   11   12 ar
  21   11   13 1
  22   13   20 1
  23   13   38 1
  24   14   15 am
  25   14   39 1
  26   15   16 1
  27   15   18 2
  28   16   17 2
  29   16   40 1
  30   17   41 1
  31   17   42 1
  32   20   21 ar
  33   20   25 ar
  34   21   22 ar
  35   21   43 1
  36   22   23 ar
  37   22   44 1
  38   23   24 ar
  39   23   26 1
  40   24   25 ar
  41   24   45 1
  42   25   46 1
  43   26   27 1
  44   26   31 1
  45   27   28 1
  46   27   47 1
  47   27   48 1
  48   28   29 1
  49   28   49 1
  50   28   50 1
  51   29   30 1
  52   29   32 1
  53   30   31 1
  54   30   51 1
  55   30   52 1
  56   31   53 1
  57   31   54 1
  58   32   55 1
  59   32   56 1
  60   32   57 1

#	End of record

