#	Name: ASD03091765
#	Creating user name:	WinNT
#	Creation time:	15. 06. 2019 20:31

#	Modifying user name:	WinNT
#	Modification time:	15. 06. 2019 20:31

#	Program:	/corina/corina34_cracker 3.40 0067  02.08.2006

@<TRIPOS>MOLECULE
ASD03091765
  31   33    0    0    0
SMALL
NO_CHARGES


@<TRIPOS>ATOM
   1 C1            -0.0122     1.4743    -0.0284 C.3     
   2 C2             0.0537    -0.0531    -0.0904 C.3     
   3 N3             0.7524    -0.5629     1.0964 N.3     
   4 C4             0.0331    -0.2108     2.3272 C.3     
   5 C5            -0.0341     1.3117     2.4632 C.3     
   6 C6             1.3884     1.8780     2.5290 C.3     
   7 N7             2.0617     1.6126     1.2503 N.am    
   8 C8             1.4107     2.0422     0.0052 C.3     
   9 C9             3.2546     0.9861     1.2201 C.2     
  10 O10            3.7488     0.6706     0.1550 O.2     
  11 C11            3.9607     0.6831     2.4794 C.2     
  12 C12            5.1018    -0.0572     2.6243 C.2     
  13 C13           -0.7519     1.8984     1.2440 C.3     
  14 O14            3.6153     1.0845     3.7173 O.3     
  15 N15            4.3925     0.6761     4.5484 N.2     
  16 C16            5.3457    -0.0338     4.0166 C.2     
  17 Br17           6.7764    -0.8693     4.9281 Br      
  18 H18           -0.5361     1.8532    -0.9059 H       
  19 H19           -0.9573    -0.4594    -0.1190 H       
  20 H20            0.5927    -0.3572    -0.9877 H       
  21 H21            0.8933    -1.5600     1.0325 H       
  22 H22           -0.9778    -0.6165     2.2857 H       
  23 H23            0.5571    -0.6294     3.1864 H       
  24 H24           -0.5739     1.5737     3.3732 H       
  25 H25            1.3461     2.9531     2.7036 H       
  26 H26            1.9369     1.3954     3.3379 H       
  27 H27            1.9739     1.6677    -0.8497 H       
  28 H28            1.3706     3.1309    -0.0295 H       
  29 H29            5.6810    -0.5459     1.8547 H       
  30 H30           -0.7604     2.9860     1.3149 H       
  31 H31           -1.7761     1.5268     1.2108 H       
@<TRIPOS>BOND
   1    1    2 1
   2    1    8 1
   3    1   13 1
   4    1   18 1
   5    2    3 1
   6    2   19 1
   7    2   20 1
   8    3    4 1
   9    3   21 1
  10    4    5 1
  11    4   22 1
  12    4   23 1
  13    5    6 1
  14    5   13 1
  15    5   24 1
  16    6    7 1
  17    6   25 1
  18    6   26 1
  19    7    8 1
  20    7    9 am
  21    8   27 1
  22    8   28 1
  23    9   10 2
  24    9   11 1
  25   11   12 2
  26   11   14 1
  27   12   16 1
  28   12   29 1
  29   13   30 1
  30   13   31 1
  31   14   15 1
  32   15   16 2
  33   16   17 1

#	End of record

