#	Name: ASD01200219
#	Creating user name:	WinNT
#	Creation time:	15. 06. 2019 19:08

#	Modifying user name:	WinNT
#	Modification time:	15. 06. 2019 19:08

#	Program:	/corina/corina34_cracker 3.40 0067  02.08.2006

@<TRIPOS>MOLECULE
ASD01200219
  42   43    0    0    0
SMALL
NO_CHARGES


@<TRIPOS>ATOM
   1 C1            -0.4882     1.0725     0.0093 C.ar    
   2 C2            -0.2885    -0.2952    -0.0042 C.ar    
   3 C3             0.9959    -0.8063    -0.0117 C.ar    
   4 C4             2.0811     0.0500    -0.0057 C.ar    
   5 C5             1.8824     1.4177     0.0073 C.ar    
   6 C6             0.5974     1.9297     0.0148 C.ar    
   7 C7             1.2130    -2.2975    -0.0258 C.3     
   8 C8             1.9975    -2.6867    -1.2804 C.3     
   9 C9             1.9911    -2.7035     1.1992 C.2     
  10 N10            2.2039    -4.0085     1.4606 N.am    
  11 O11            2.4257    -1.8563     1.9497 O.2     
  12 C12            1.1484    -2.4034    -2.5212 C.3     
  13 C13            2.8140    -4.3758     2.6048 C.2     
  14 N14            3.0268    -5.6807     2.8662 N.am    
  15 O15            3.1724    -3.5303     3.4010 O.2     
  16 C16            1.9734    -2.6606    -3.7944 C.3     
  17 C17            1.2448    -3.7746    -4.5741 C.3     
  18 C18           -0.2200    -3.6899    -4.0779 C.3     
  19 C19           -0.0527    -3.3701    -2.5716 C.3     
  20 C20            3.6901    -6.0800     4.1099 C.3     
  21 Br21           0.3248     3.8009     0.0326 Br      
  22 H22           -1.4917     1.4718     0.0110 H       
  23 H23           -1.1361    -0.9645    -0.0085 H       
  24 H24            3.0844    -0.3498    -0.0108 H       
  25 H25            2.7303     2.0867     0.0123 H       
  26 H26            0.2485    -2.8052    -0.0284 H       
  27 H27            2.9175    -2.1042    -1.3290 H       
  28 H28            2.2414    -3.7484    -1.2417 H       
  29 H29            1.9179    -4.6833     0.8252 H       
  30 H30            0.7977    -1.3715    -2.5057 H       
  31 H31            2.7408    -6.3556     2.2308 H       
  32 H32            2.0223    -1.7537    -4.3972 H       
  33 H33            2.9787    -2.9872    -3.5284 H       
  34 H34            1.2958    -3.5858    -5.6464 H       
  35 H35            1.6723    -4.7487    -4.3365 H       
  36 H36           -0.7542    -2.8871    -4.5862 H       
  37 H37           -0.7305    -4.6430    -4.2161 H       
  38 H38            0.1653    -4.2789    -2.0107 H       
  39 H39           -0.9485    -2.8862    -2.1826 H       
  40 H40            4.6856    -5.6379     4.1489 H       
  41 H41            3.1048    -5.7329     4.9615 H       
  42 H42            3.7733    -7.1663     4.1448 H       
@<TRIPOS>BOND
   1    1    2 ar
   2    1    6 ar
   3    1   22 1
   4    2    3 ar
   5    2   23 1
   6    3    4 ar
   7    3    7 1
   8    4    5 ar
   9    4   24 1
  10    5    6 ar
  11    5   25 1
  12    6   21 1
  13    7    8 1
  14    7    9 1
  15    7   26 1
  16    8   12 1
  17    8   27 1
  18    8   28 1
  19    9   10 am
  20    9   11 2
  21   10   13 am
  22   10   29 1
  23   12   16 1
  24   12   19 1
  25   12   30 1
  26   13   14 am
  27   13   15 2
  28   14   20 1
  29   14   31 1
  30   16   17 1
  31   16   32 1
  32   16   33 1
  33   17   18 1
  34   17   34 1
  35   17   35 1
  36   18   19 1
  37   18   36 1
  38   18   37 1
  39   19   38 1
  40   19   39 1
  41   20   40 1
  42   20   41 1
  43   20   42 1

#	End of record

