#	Name: ASD02440032
#	Creating user name:	WinNT
#	Creation time:	15. 06. 2019 20:21

#	Modifying user name:	WinNT
#	Modification time:	15. 06. 2019 20:21

#	Program:	/corina/corina34_cracker 3.40 0067  02.08.2006

@<TRIPOS>MOLECULE
ASD02440032
 102  107    0    0    0
SMALL
NO_CHARGES


@<TRIPOS>ATOM
   1 C1            -1.9766     1.2129     0.3987 C.ar    
   2 C2            -2.0068    -0.1648     0.2969 C.ar    
   3 C3            -0.8122    -0.8691     0.3014 C.ar    
   4 C4             0.3727    -0.1576     0.4087 C.ar    
   5 C5             0.3245     1.2203     0.5069 C.ar    
   6 N6            -0.8301     1.8570     0.4993 N.ar    
   7 C7             1.6064     2.0039     0.6245 C.3     
   8 N8             2.0245     2.4614    -0.7074 N.3     
   9 C9             3.2737     3.2307    -0.6316 C.3     
  10 C10            3.6763     3.6891    -2.0347 C.3     
  11 N11            4.9254     4.4584    -1.9589 N.3     
  12 C12            5.3436     4.9160    -3.2907 C.3     
  13 C13            6.2161     6.1649    -3.1504 C.3     
  14 C14            6.6521     6.6415    -4.5377 C.3     
  15 C15            7.4481     5.5377    -5.2316 C.3     
  16 C16            6.5773     4.2868    -5.3697 C.3     
  17 C17            6.1442     3.8104    -3.9818 C.3     
  18 C18            7.5473     7.8758    -4.3900 C.3     
  19 C19            7.9471     8.3623    -5.7815 C.3     
  20 C20            8.7275     7.2712    -6.5222 C.3     
  21 C21            7.8946     5.9980    -6.6234 C.3     
  22 C22            8.7208     4.8732    -7.2451 C.3     
  23 C23            9.7393     5.4117    -8.2479 C.3     
  24 C24            9.1813     6.6636    -8.9316 C.3     
  25 C25            9.0566     7.7987    -7.9182 C.3     
  26 C26           10.0642     4.3005    -9.2442 C.3     
  27 C27           10.9553     4.7879   -10.3945 C.3     
  28 C28           10.2213     5.9373   -11.0620 C.3     
  29 C29           10.1554     7.0839   -10.0195 C.3     
  30 C30            8.6860     5.2039    -4.3968 C.3     
  31 C31            8.8069     5.4994   -11.4476 C.3     
  32 O32            6.7709     8.6896    -6.5242 O.3     
  33 C33            9.7112     8.2684   -10.8852 C.3     
  34 C34           10.5518     8.0875   -12.1785 C.3     
  35 C35           10.9234     6.5856   -12.2516 C.3     
  36 C36           12.4385     6.4082   -12.1339 C.3     
  37 C37           13.1144     6.9443   -13.3975 C.3     
  38 C38           12.9493     7.1801   -10.9156 C.3     
  39 C39           14.6113     6.6317   -13.3469 C.3     
  40 C40           15.2771     7.1597   -14.5915 C.2     
  41 O41           16.5983     6.9990   -14.7656 O.3     
  42 O42           14.6216     7.7278   -15.4326 O.2     
  43 C43           17.1719     7.5329   -15.9879 C.3     
  44 H44           -2.9023     1.7691     0.3914 H       
  45 H45           -2.9488    -0.6866     0.2152 H       
  46 H46           -0.8052    -1.9463     0.2236 H       
  47 H47            1.3216    -0.6735     0.4159 H       
  48 H48            1.4469     2.8665     1.2715 H       
  49 H49            2.3828     1.3686     1.0507 H       
  50 H50            2.1166     1.6843    -1.3443 H       
  51 H51            3.1257     4.1018     0.0067 H       
  52 H52            4.0616     2.6039    -0.2140 H       
  53 H53            3.8242     2.8180    -2.6730 H       
  54 H54            2.8883     4.3159    -2.4522 H       
  55 H55            4.8334     5.2356    -1.3220 H       
  56 H56            4.4623     5.1534    -3.8867 H       
  57 H57            5.6462     6.9528    -2.6581 H       
  58 H58            7.0973     5.9273    -2.5543 H       
  59 H59            5.7728     6.8877    -5.1328 H       
  60 H60            5.6949     4.5223    -5.9647 H       
  61 H61            7.1479     3.4995    -5.8623 H       
  62 H62            7.0265     3.5745    -3.3869 H       
  63 H63            5.5236     2.9198    -4.0806 H       
  64 H64            7.0013     8.6632    -3.8704 H       
  65 H65            8.4411     7.6133    -3.8239 H       
  66 H66            8.5706     9.2514    -5.6876 H       
  67 H67            9.6526     7.0587    -5.9863 H       
  68 H68            7.0172     6.1866    -7.2421 H       
  69 H69            9.2480     4.3399    -6.4541 H       
  70 H70            8.0516     4.1801    -7.7550 H       
  71 H71           10.6534     5.6762    -7.7162 H       
  72 H72            8.2033     6.4438    -9.3598 H       
  73 H73            8.2652     8.4764    -8.2384 H       
  74 H74            9.9983     8.3462    -7.8791 H       
  75 H75           10.5758     3.4940    -8.7189 H       
  76 H76            9.1329     3.9145    -9.6584 H       
  77 H77           11.9122     5.1339   -10.0036 H       
  78 H78           11.1139     3.9813   -11.1103 H       
  79 H79           11.1420     7.2651    -9.5928 H       
  80 H80            8.3852     4.9857    -3.3721 H       
  81 H81            9.1869     4.3339    -4.8215 H       
  82 H82            9.3679     6.0543    -4.4020 H       
  83 H83            8.2673     5.1859   -10.5539 H       
  84 H84            8.2830     6.3333   -11.9146 H       
  85 H85            8.8628     4.6669   -12.1489 H       
  86 H86            6.2321     9.3843    -6.1215 H       
  87 H87            8.6456     8.2066   -11.1059 H       
  88 H88            9.9512     9.2135   -10.3982 H       
  89 H89            9.9619     8.3698   -13.0506 H       
  90 H90           11.4556     8.6944   -12.1252 H       
  91 H91           10.5631     6.1525   -13.1847 H       
  92 H92           12.6725     5.3500   -12.0178 H       
  93 H93           12.6737     6.4701   -14.2744 H       
  94 H94           12.9704     8.0231   -13.4568 H       
  95 H95           12.5843     8.2064   -10.9565 H       
  96 H96           12.5882     6.7021   -10.0050 H       
  97 H97           14.0393     7.1818   -10.9174 H       
  98 H98           15.0521     7.1059   -12.4700 H       
  99 H99           14.7554     5.5529   -13.2876 H       
 100 H100          16.9996     8.6084   -16.0306 H       
 101 H101          18.2438     7.3358   -16.0026 H       
 102 H102          16.7029     7.0554   -16.8482 H       
@<TRIPOS>BOND
   1    1    2 ar
   2    1    6 ar
   3    1   44 1
   4    2    3 ar
   5    2   45 1
   6    3    4 ar
   7    3   46 1
   8    4    5 ar
   9    4   47 1
  10    5    6 ar
  11    5    7 1
  12    7    8 1
  13    7   48 1
  14    7   49 1
  15    8    9 1
  16    8   50 1
  17    9   10 1
  18    9   51 1
  19    9   52 1
  20   10   11 1
  21   10   53 1
  22   10   54 1
  23   11   12 1
  24   11   55 1
  25   12   13 1
  26   12   17 1
  27   12   56 1
  28   13   14 1
  29   13   57 1
  30   13   58 1
  31   14   15 1
  32   14   18 1
  33   14   59 1
  34   15   16 1
  35   15   21 1
  36   15   30 1
  37   16   17 1
  38   16   60 1
  39   16   61 1
  40   17   62 1
  41   17   63 1
  42   18   19 1
  43   18   64 1
  44   18   65 1
  45   19   20 1
  46   19   32 1
  47   19   66 1
  48   20   21 1
  49   20   25 1
  50   20   67 1
  51   21   22 1
  52   21   68 1
  53   22   23 1
  54   22   69 1
  55   22   70 1
  56   23   24 1
  57   23   26 1
  58   23   71 1
  59   24   25 1
  60   24   29 1
  61   24   72 1
  62   25   73 1
  63   25   74 1
  64   26   27 1
  65   26   75 1
  66   26   76 1
  67   27   28 1
  68   27   77 1
  69   27   78 1
  70   28   29 1
  71   28   31 1
  72   28   35 1
  73   29   33 1
  74   29   79 1
  75   30   80 1
  76   30   81 1
  77   30   82 1
  78   31   83 1
  79   31   84 1
  80   31   85 1
  81   32   86 1
  82   33   34 1
  83   33   87 1
  84   33   88 1
  85   34   35 1
  86   34   89 1
  87   34   90 1
  88   35   36 1
  89   35   91 1
  90   36   37 1
  91   36   38 1
  92   36   92 1
  93   37   39 1
  94   37   93 1
  95   37   94 1
  96   38   95 1
  97   38   96 1
  98   38   97 1
  99   39   40 1
 100   39   98 1
 101   39   99 1
 102   40   41 1
 103   40   42 2
 104   41   43 1
 105   43  100 1
 106   43  101 1
 107   43  102 1

#	End of record

