#	Name: ASD03330666
#	Creating user name:	WinNT
#	Creation time:	15. 06. 2019 20:37

#	Modifying user name:	WinNT
#	Modification time:	15. 06. 2019 20:37

#	Program:	/corina/corina34_cracker 3.40 0067  02.08.2006

@<TRIPOS>MOLECULE
ASD03330666
  70   72    0    0    0
SMALL
NO_CHARGES


@<TRIPOS>ATOM
   1 C1            -1.2362     2.7966    -1.0252 C.2     
   2 N2            -1.6641     1.5394    -1.3145 N.pl3   
   3 C3             0.1240     2.7522    -0.9605 C.2     
   4 N4             0.5090     1.4855    -1.2255 N.2     
   5 C5            -0.5575     0.7500    -1.4453 C.2     
   6 C6            -0.5590    -0.6849    -1.7774 C.2     
   7 C7             1.0162     3.8852    -0.6564 C.2     
   8 O8             0.5478     4.9854    -0.4343 O.2     
   9 C9             3.2379     4.8282    -0.3221 C.3     
  10 N10            2.3510     3.7020    -0.6244 N.am    
  11 C11            3.3699     4.9805     1.1946 C.3     
  12 C12            4.0896     3.7587     1.7691 C.3     
  13 C13            4.1746     6.2425     1.5123 C.3     
  14 C14            1.9777     5.0927     1.8190 C.3     
  15 C15            4.5967     4.5726    -0.9214 C.2     
  16 N16            5.4997     5.5705    -0.9944 N.am    
  17 O17            4.8777     3.4688    -1.3382 O.2     
  18 C18            6.8502     5.3012    -1.4941 C.3     
  19 C19           -3.0644     1.1267    -1.4430 C.3     
  20 C20           -3.8060     2.1346    -2.3267 C.3     
  21 C21           -4.3401     3.2772    -1.4689 C.3     
  22 N22           -3.4361     3.5660    -0.3538 N.3     
  23 C23           -2.1173     4.0039    -0.8346 C.3     
  24 C24           -4.0220     4.5603     0.5550 C.3     
  25 C25           -1.1605    -1.5527    -0.9711 C.2     
  26 C26            0.1216    -1.1686    -3.0319 C.3     
  27 C27           -0.5245    -0.5065    -4.2505 C.3     
  28 C28            0.1666    -0.9976    -5.5241 C.3     
  29 C29            1.6513    -0.6318    -5.4722 C.3     
  30 C30            2.2974    -1.2940    -4.2536 C.3     
  31 C31            1.6064    -0.8028    -2.9800 C.3     
  32 H32            2.8208     5.7426    -0.7441 H       
  33 H33            2.7246     2.8245    -0.8015 H       
  34 H34            5.0815     3.6788     1.3243 H       
  35 H35            4.1837     3.8672     2.8496 H       
  36 H36            3.5164     2.8597     1.5428 H       
  37 H37            3.5979     7.1225     1.2273 H       
  38 H38            4.3877     6.2781     2.5807 H       
  39 H39            5.1114     6.2259     0.9553 H       
  40 H40            1.4044     4.1937     1.5927 H       
  41 H41            2.0718     5.2013     2.8995 H       
  42 H42            1.4650     5.9632     1.4097 H       
  43 H43            5.2553     6.4670    -0.7160 H       
  44 H44            7.3309     4.5570    -0.8591 H       
  45 H45            6.7914     4.9242    -2.5151 H       
  46 H46            7.4332     6.2221    -1.4798 H       
  47 H47           -3.1123     0.1379    -1.8991 H       
  48 H48           -3.5274     1.0969    -0.4567 H       
  49 H49           -3.1213     2.5329    -3.0755 H       
  50 H50           -4.6375     1.6365    -2.8254 H       
  51 H51           -4.4432     4.1698    -2.0861 H       
  52 H52           -5.3180     3.0014    -1.0744 H       
  53 H53           -1.6658     4.6725    -0.1016 H       
  54 H54           -2.2306     4.5260    -1.7847 H       
  55 H55           -4.9605     4.1776     0.9560 H       
  56 H56           -3.3300     4.7563     1.3740 H       
  57 H57           -4.2103     5.4849     0.0093 H       
  58 H58           -1.2155    -2.5959    -1.2452 H       
  59 H59           -1.5944    -1.2150    -0.0415 H       
  60 H60            0.0165    -2.2509    -3.1080 H       
  61 H61           -1.5822    -0.7671    -4.2874 H       
  62 H62           -0.4194     0.5758    -4.1743 H       
  63 H63            0.0615    -2.0799    -5.6002 H       
  64 H64           -0.2937    -0.5259    -6.3922 H       
  65 H65            2.1436    -0.9817    -6.3796 H       
  66 H66            1.7564     0.4504    -5.3960 H       
  67 H67            2.1923    -2.3762    -4.3298 H       
  68 H68            3.3552    -1.0334    -4.2166 H       
  69 H69            1.7115     0.2794    -2.9038 H       
  70 H70            2.0667    -1.2746    -2.1118 H       
@<TRIPOS>BOND
   1    1    2 1
   2    1    3 2
   3    1   23 1
   4    2   19 1
   5    2    5 1
   6    3    4 1
   7    3    7 1
   8    4    5 2
   9    5    6 1
  10    6   25 2
  11    6   26 1
  12    7    8 2
  13    7   10 am
  14    9   10 1
  15    9   11 1
  16    9   15 1
  17    9   32 1
  18   10   33 1
  19   11   12 1
  20   11   13 1
  21   11   14 1
  22   12   34 1
  23   12   35 1
  24   12   36 1
  25   13   37 1
  26   13   38 1
  27   13   39 1
  28   14   40 1
  29   14   41 1
  30   14   42 1
  31   15   16 am
  32   15   17 2
  33   16   18 1
  34   16   43 1
  35   18   44 1
  36   18   45 1
  37   18   46 1
  38   19   20 1
  39   19   47 1
  40   19   48 1
  41   20   21 1
  42   20   49 1
  43   20   50 1
  44   21   22 1
  45   21   51 1
  46   21   52 1
  47   22   23 1
  48   22   24 1
  49   23   53 1
  50   23   54 1
  51   24   55 1
  52   24   56 1
  53   24   57 1
  54   25   58 1
  55   25   59 1
  56   26   27 1
  57   26   31 1
  58   26   60 1
  59   27   28 1
  60   27   61 1
  61   27   62 1
  62   28   29 1
  63   28   63 1
  64   28   64 1
  65   29   30 1
  66   29   65 1
  67   29   66 1
  68   30   31 1
  69   30   67 1
  70   30   68 1
  71   31   69 1
  72   31   70 1

#	End of record

