#	Name: ASD02562098
#	Creating user name:	WinNT
#	Creation time:	15. 06. 2019 20:25

#	Modifying user name:	WinNT
#	Modification time:	15. 06. 2019 20:25

#	Program:	/corina/corina34_cracker 3.40 0067  02.08.2006

@<TRIPOS>MOLECULE
ASD02562098
  48   51    0    0    0
SMALL
NO_CHARGES


@<TRIPOS>ATOM
   1 C1             0.0856     1.8403    -0.8012 C.ar    
   2 N2             0.5130     0.8959    -1.6234 N.ar    
   3 C3            -0.2166     0.5321    -2.6732 C.ar    
   4 C4            -1.4507     1.1634    -2.9009 C.ar    
   5 C5            -1.8649     2.1612    -2.0012 C.ar    
   6 N6            -1.0755     2.4588    -0.9753 N.ar    
   7 N7            -3.0721     2.8159    -2.1778 N.pl3   
   8 N8             0.8754     2.1919     0.2827 N.pl3   
   9 C9            -3.5231     3.7223    -1.2143 C.ar    
  10 C10            2.0704     1.5160     0.5226 C.ar    
  11 C11            3.2849     2.1791     0.3725 C.ar    
  12 C12           -4.2684     4.8301    -1.5965 C.ar    
  13 C13           -4.4173     5.5186     0.6956 C.ar    
  14 C14           -3.6792     4.4116     1.0796 C.ar    
  15 C15           -3.2314     3.5134     0.1275 C.ar    
  16 C16            2.0457     0.1813     0.9170 C.ar    
  17 C17            3.2233    -0.4899     1.1548 C.ar    
  18 C18            4.4472     0.1716     0.9996 C.ar    
  19 C19            4.4672     1.5155     0.6083 C.ar    
  20 C20            3.3052     3.6258    -0.0493 C.3     
  21 C21            0.7274    -0.5295     1.0842 C.3     
  22 C22            5.7075    -0.5411     1.2530 C.2     
  23 C23            6.8868     0.0986     1.1027 C.2     
  24 C24            8.1146    -0.5958     1.3496 C.1     
  25 N25            9.0886    -1.1466     1.5455 N.1     
  26 N26           -0.0668    -0.3824    -3.6850 N.pl3   
  27 C27           -1.1709    -0.2953    -4.4815 C.2     
  28 N28           -1.9812     0.6119    -4.0198 N.2     
  29 F29           -3.3909     4.2119     2.3843 F       
  30 C30           -4.7142     5.7257    -0.6410 C.ar    
  31 F31           -5.4393     6.8035    -1.0123 F       
  32 H32           -3.6048     2.6455    -2.9703 H       
  33 H33            0.5963     2.9083     0.8741 H       
  34 H34           -4.4996     4.9925    -2.6389 H       
  35 H35           -4.7661     6.2188     1.4402 H       
  36 H36           -2.6557     2.6503     0.4273 H       
  37 H37            3.2032    -1.5253     1.4612 H       
  38 H38            5.4093     2.0296     0.4874 H       
  39 H39            3.2747     4.2625     0.8349 H       
  40 H40            4.2172     3.8277    -0.6111 H       
  41 H41            2.4385     3.8335    -0.6767 H       
  42 H42            0.4875    -1.0703     0.1687 H       
  43 H43            0.7966    -1.2328     1.9141 H       
  44 H44           -0.0553     0.2004     1.2908 H       
  45 H45            5.6902    -1.5766     1.5594 H       
  46 H46            6.9042     1.1341     0.7963 H       
  47 H47            0.6862    -0.9807    -3.8110 H       
  48 H48           -1.3463    -0.8911    -5.3650 H       
@<TRIPOS>BOND
   1    1    2 ar
   2    1    8 1
   3    1    6 ar
   4    2    3 ar
   5    3    4 ar
   6    3   26 1
   7    4    5 ar
   8    4   28 1
   9    5    6 ar
  10    5    7 1
  11    7    9 1
  12    7   32 1
  13    8   10 1
  14    8   33 1
  15    9   12 ar
  16    9   15 ar
  17   10   11 ar
  18   10   16 ar
  19   11   20 1
  20   11   19 ar
  21   12   30 ar
  22   12   34 1
  23   13   14 ar
  24   13   30 ar
  25   13   35 1
  26   14   15 ar
  27   14   29 1
  28   15   36 1
  29   16   17 ar
  30   16   21 1
  31   17   18 ar
  32   17   37 1
  33   18   19 ar
  34   18   22 1
  35   19   38 1
  36   20   39 1
  37   20   40 1
  38   20   41 1
  39   21   42 1
  40   21   43 1
  41   21   44 1
  42   22   23 2
  43   22   45 1
  44   23   24 1
  45   23   46 1
  46   24   25 3
  47   26   27 1
  48   26   47 1
  49   27   28 2
  50   27   48 1
  51   30   31 1

#	End of record

