#	Name: ASD01880726
#	Creating user name:	WinNT
#	Creation time:	15. 06. 2019 19:41

#	Modifying user name:	WinNT
#	Modification time:	15. 06. 2019 19:41

#	Program:	/corina/corina34_cracker 3.40 0067  02.08.2006

@<TRIPOS>MOLECULE
ASD01880726
  40   42    0    0    0
SMALL
NO_CHARGES


@<TRIPOS>ATOM
   1 N1            -0.0158     1.3132     0.0093 N.ar    
   2 C2             0.0021    -0.0041     0.0020 C.ar    
   3 N3             1.1309    -0.6841    -0.0120 N.ar    
   4 C4             2.3025    -0.0625    -0.0198 C.ar    
   5 C5             2.3323     1.3198    -0.0131 C.ar    
   6 C6             1.1185     2.0082     0.0022 C.ar    
   7 C7             3.6425     2.0643    -0.0211 C.3     
   8 O8             4.0446     2.3064    -1.3709 O.3     
   9 C9             5.2127     2.9720    -1.5558 C.ar    
  10 C10            5.6629     3.2409    -2.8447 C.ar    
  11 C11            6.8445     3.9146    -3.0304 C.ar    
  12 C12            7.6007     4.3337    -1.9308 C.ar    
  13 C13            7.1437     4.0614    -0.6384 C.ar    
  14 C14            5.9553     3.3895    -0.4577 C.ar    
  15 C15            7.5995     4.3562    -4.2594 C.3     
  16 N16            8.8059     5.0374    -3.7763 N.am    
  17 C17            8.8027     5.0222    -2.4324 C.2     
  18 O18            9.6684     5.5079    -1.7304 O.2     
  19 Br19           3.9123    -1.0546    -0.0393 Br      
  20 C20            7.9481     4.5063     0.5558 C.3     
  21 N21            1.0951     3.3935     0.0089 N.pl3   
  22 C22            9.4920     7.0976    -4.9018 C.3     
  23 C23            9.8436     5.6354    -4.6201 C.3     
  24 H24           -0.9346    -0.5417     0.0081 H       
  25 H25            3.5234     3.0150     0.4986 H       
  26 H26            4.4027     1.4675     0.4829 H       
  27 H27            5.0838     2.9197    -3.6978 H       
  28 H28            5.6025     3.1797     0.5412 H       
  29 H29            7.8739     3.4903    -4.8618 H       
  30 H30            6.9905     5.0438    -4.8463 H       
  31 H31            7.6347     5.5072     0.8526 H       
  32 H32            7.7848     3.8144     1.3821 H       
  33 H33            9.0068     4.5190     0.2965 H       
  34 H34            1.9268     3.8926     0.0030 H       
  35 H35            0.2470     3.8642     0.0196 H       
  36 H36           10.2640     7.5425    -5.5296 H       
  37 H37            8.5321     7.1479    -5.4158 H       
  38 H38            9.4293     7.6440    -3.9608 H       
  39 H39           10.8035     5.5851    -4.1061 H       
  40 H40            9.9063     5.0890    -5.5611 H       
@<TRIPOS>BOND
   1    1    2 ar
   2    1    6 ar
   3    2    3 ar
   4    2   24 1
   5    3    4 ar
   6    4    5 ar
   7    4   19 1
   8    5    6 ar
   9    5    7 1
  10    6   21 1
  11    7    8 1
  12    7   25 1
  13    7   26 1
  14    8    9 1
  15    9   10 ar
  16    9   14 ar
  17   10   11 ar
  18   10   27 1
  19   11   12 ar
  20   11   15 1
  21   12   13 ar
  22   12   17 1
  23   13   14 ar
  24   13   20 1
  25   14   28 1
  26   15   16 1
  27   15   29 1
  28   15   30 1
  29   16   17 am
  30   16   23 1
  31   17   18 2
  32   20   31 1
  33   20   32 1
  34   20   33 1
  35   21   34 1
  36   21   35 1
  37   22   23 1
  38   22   36 1
  39   22   37 1
  40   22   38 1
  41   23   39 1
  42   23   40 1

#	End of record

