#	Name: ASD01120310
#	Creating user name:	WinNT
#	Creation time:	15. 06. 2019 18:59

#	Modifying user name:	WinNT
#	Modification time:	15. 06. 2019 18:59

#	Program:	/corina/corina34_cracker 3.40 0067  02.08.2006

@<TRIPOS>MOLECULE
ASD01120310
  40   42    0    0    0
SMALL
NO_CHARGES


@<TRIPOS>ATOM
   1 C1             3.1351    -4.5420    -2.7563 C.3     
   2 C2             2.1102    -4.1869    -1.7101 C.2     
   3 O3             2.4616    -3.9423    -0.5753 O.2     
   4 N4             0.8031    -4.1412    -2.0354 N.am    
   5 C5            -0.1563    -3.9007    -1.0456 C.ar    
   6 C6             0.1127    -3.0030    -0.0202 C.ar    
   7 C7            -0.8338    -2.7651     0.9582 C.ar    
   8 C8            -2.0501    -3.4186     0.9202 C.ar    
   9 C9            -2.3258    -4.3178    -0.1034 C.ar    
  10 C10           -1.3793    -4.5544    -1.0905 C.ar    
  11 N11           -3.5559    -4.9789    -0.1411 N.pl3   
  12 C12           -3.6080    -6.3354    -0.4500 C.ar    
  13 C13           -2.4407    -7.0672    -0.5713 C.ar    
  14 C14           -2.4889    -8.4187    -0.8789 C.ar    
  15 C15           -3.6960    -9.0556    -1.0683 C.ar    
  16 C16           -4.8870    -8.3446    -0.9521 C.ar    
  17 C17           -4.8497    -6.9730    -0.6353 C.ar    
  18 C18           -6.1876    -6.5220    -0.5847 C.2     
  19 C19           -6.9938    -7.5830    -0.8606 C.2     
  20 N20           -6.2090    -8.7007    -1.0822 N.pl3   
  21 C21           -8.4595    -7.5482    -0.9108 C.2     
  22 O22           -9.0508    -6.5077    -0.6951 O.2     
  23 O23           -9.1514    -8.6703    -1.1962 O.3     
  24 N24           -3.7262   -10.4989    -1.3964 N.pl3   
  25 O25           -2.6847   -11.1221    -1.4988 O.2     
  26 O26           -4.7925   -11.0631    -1.5641 O.2     
  27 H27            4.1295    -4.5280    -2.3101 H       
  28 H28            2.9259    -5.5380    -3.1465 H       
  29 H29            3.0912    -3.8167    -3.5688 H       
  30 H30            0.5274    -4.2750    -2.9557 H       
  31 H31            1.0628    -2.4906     0.0126 H       
  32 H32           -0.6220    -2.0669     1.7544 H       
  33 H33           -2.7874    -3.2311     1.6867 H       
  34 H34           -1.5910    -5.2523    -1.8871 H       
  35 H35           -4.3737    -4.4927     0.0480 H       
  36 H36           -1.4861    -6.5833    -0.4260 H       
  37 H37           -1.5698    -8.9783    -0.9713 H       
  38 H38           -6.5124    -5.5155    -0.3659 H       
  39 H39           -6.5368    -9.5877    -1.2983 H       
  40 H40          -10.1154    -8.5981    -1.2178 H       
@<TRIPOS>BOND
   1    1    2 1
   2    1   27 1
   3    1   28 1
   4    1   29 1
   5    2    3 2
   6    2    4 am
   7    4    5 1
   8    4   30 1
   9    5    6 ar
  10    5   10 ar
  11    6    7 ar
  12    6   31 1
  13    7    8 ar
  14    7   32 1
  15    8    9 ar
  16    8   33 1
  17    9   10 ar
  18    9   11 1
  19   10   34 1
  20   11   12 1
  21   11   35 1
  22   12   13 ar
  23   12   17 ar
  24   13   14 ar
  25   13   36 1
  26   14   15 ar
  27   14   37 1
  28   15   16 ar
  29   15   24 1
  30   16   17 ar
  31   16   20 1
  32   17   18 1
  33   18   19 2
  34   18   38 1
  35   19   20 1
  36   19   21 1
  37   20   39 1
  38   21   22 2
  39   21   23 1
  40   23   40 1
  41   24   25 2
  42   24   26 2

#	End of record

