#	Name: ASD03082375
#	Creating user name:	WinNT
#	Creation time:	15. 06. 2019 20:27

#	Modifying user name:	WinNT
#	Modification time:	15. 06. 2019 20:27

#	Program:	/corina/corina34_cracker 3.40 0067  02.08.2006

@<TRIPOS>MOLECULE
ASD03082375
  53   55    0    0    0
SMALL
NO_CHARGES


@<TRIPOS>ATOM
   1 C1            -3.4928    -0.5270    -0.0410 C.ar    
   2 C2            -2.3278    -0.0178     0.5197 C.ar    
   3 C3            -2.3589     1.1910     1.2022 C.ar    
   4 C4            -3.5519     1.8855     1.3219 C.ar    
   5 C5            -4.7126     1.3718     0.7597 C.ar    
   6 C6            -4.6801     0.1688     0.0807 C.ar    
   7 N7            -1.1271    -0.7213     0.3972 N.pl3   
   8 C8            -1.1417    -2.1156     0.2849 C.2     
   9 C9            -0.0251    -2.9348     0.0449 C.2     
  10 N10           -2.1995    -2.8852     0.3912 N.2     
  11 N11           -1.7932    -4.2144     0.2168 N.pl3   
  12 C12           -0.4510    -4.2172     0.0054 C.2     
  13 C13           -2.6218    -5.3398     0.2571 C.ar    
  14 C14           -2.2247    -6.4961     0.9255 C.ar    
  15 C15           -3.8688    -5.3320    -0.3655 C.ar    
  16 C16           -4.6568    -6.4627    -0.3023 C.ar    
  17 N17           -4.2430    -7.5407     0.3365 N.ar    
  18 C18           -3.0718    -7.5854     0.9424 C.ar    
  19 C19           -6.0073    -6.4666    -0.9710 C.3     
  20 H20           -2.7703    -8.4875     1.4541 H       
  21 C21            0.4087    -5.4321    -0.2311 C.3     
  22 C22            1.0531    -5.8516     1.0650 C.2     
  23 N23            1.8710    -6.9223     1.0953 N.am    
  24 O24            0.8356    -5.2256     2.0808 O.2     
  25 C25            2.4974    -7.3301     2.3553 C.3     
  26 C26            3.3703    -8.5635     2.1151 C.3     
  27 C27           -5.9422    -0.3855    -0.5282 C.3     
  28 F28           -7.0048     0.4888    -0.2756 F       
  29 F29           -5.7713    -0.5249    -1.9097 F       
  30 F30           -6.2223    -1.6349     0.0355 F       
  31 O31           -3.5859     3.0686     1.9896 O.3     
  32 C32           -2.3543     3.5368     2.5429 C.3     
  33 H33           -3.4692    -1.4649    -0.5759 H       
  34 H34           -1.4550     1.5889     1.6393 H       
  35 H35           -5.6425     1.9131     0.8534 H       
  36 H36           -0.2833    -0.2430     0.3900 H       
  37 H37            0.9931    -2.5991    -0.0851 H       
  38 H38           -1.2672    -6.5394     1.4232 H       
  39 H39           -4.2136    -4.4530    -0.8897 H       
  40 H40           -5.9031    -6.8155    -1.9984 H       
  41 H41           -6.6796    -7.1310    -0.4281 H       
  42 H42           -6.4161    -5.4562    -0.9701 H       
  43 H43           -0.2092    -6.2462    -0.6099 H       
  44 H44            1.1823    -5.1932    -0.9609 H       
  45 H45            2.0449    -7.4229     0.2829 H       
  46 H46            3.1153    -6.5159     2.7341 H       
  47 H47            1.7238    -7.5690     3.0851 H       
  48 H48            2.7524    -9.3777     1.7364 H       
  49 H49            4.1439    -8.3247     1.3854 H       
  50 H50            3.8363    -8.8669     3.0526 H       
  51 H51           -1.9770     2.8070     3.2592 H       
  52 H52           -1.6253     3.6723     1.7440 H       
  53 H53           -2.5213     4.4884     3.0476 H       
@<TRIPOS>BOND
   1    1    2 ar
   2    1    6 ar
   3    1   33 1
   4    2    3 ar
   5    2    7 1
   6    3    4 ar
   7    3   34 1
   8    4    5 ar
   9    4   31 1
  10    5    6 ar
  11    5   35 1
  12    6   27 1
  13    7    8 1
  14    7   36 1
  15    8    9 1
  16    8   10 2
  17    9   12 2
  18    9   37 1
  19   10   11 1
  20   11   12 1
  21   11   13 1
  22   12   21 1
  23   13   14 ar
  24   13   15 ar
  25   14   18 ar
  26   14   38 1
  27   15   16 ar
  28   15   39 1
  29   16   17 ar
  30   16   19 1
  31   17   18 ar
  32   18   20 1
  33   19   40 1
  34   19   41 1
  35   19   42 1
  36   21   22 1
  37   21   43 1
  38   21   44 1
  39   22   23 am
  40   22   24 2
  41   23   25 1
  42   23   45 1
  43   25   26 1
  44   25   46 1
  45   25   47 1
  46   26   48 1
  47   26   49 1
  48   26   50 1
  49   27   28 1
  50   27   29 1
  51   27   30 1
  52   31   32 1
  53   32   51 1
  54   32   52 1
  55   32   53 1

#	End of record

