#	Name: ASD00100131
#	Creating user name:	WinNT
#	Creation time:	15. 06. 2019 18:30

#	Modifying user name:	WinNT
#	Modification time:	15. 06. 2019 18:30

#	Program:	/corina/corina34_cracker 3.40 0067  02.08.2006

@<TRIPOS>MOLECULE
ASD00100131
  35   37    0    0    0
SMALL
NO_CHARGES


@<TRIPOS>ATOM
   1 N1            -0.9593    -1.4007    -2.3670 N.pl3   
   2 C2            -0.4981    -1.4195    -1.0617 C.2     
   3 N3             0.6270    -1.9574    -0.6569 N.2     
   4 C4             0.7470    -1.7843     0.6826 C.2     
   5 C5            -0.3478    -1.1137     1.1164 C.2     
   6 N6            -1.1346    -0.8777     0.0115 N.pl3   
   7 C7             1.8846    -2.1277     2.8648 C.2     
   8 C8             1.8783    -2.2478     1.5254 C.2     
   9 C9             3.0200    -2.8431     0.9935 C.2     
  10 C10            3.9364    -3.1992     1.8908 C.2     
  11 S11            3.3832    -2.7858     3.5077 S.3     
  12 C12           -2.4202    -0.1754    -0.0050 C.3     
  13 C13           -2.8260     0.1629     1.4064 C.ar    
  14 C14           -2.4772     1.3853     1.9534 C.ar    
  15 C15           -2.8499     1.6951     3.2505 C.ar    
  16 C16           -3.5706     0.7846     4.0008 C.ar    
  17 C17           -3.9211    -0.4364     3.4581 C.ar    
  18 C18           -3.5542    -0.7481     2.1566 C.ar    
  19 O19           -3.9029    -1.9469     1.6199 O.3     
  20 C20           -4.6528    -2.8359     2.4503 C.3     
  21 F21           -1.7725     2.2762     1.2220 F       
  22 H22           -0.4016    -1.7422    -3.0834 H       
  23 H23           -1.8417    -1.0497    -2.5646 H       
  24 H24           -0.5605    -0.8180     2.1331 H       
  25 H25            1.0928    -1.6900     3.4547 H       
  26 H26            3.1514    -3.0038    -0.0664 H       
  27 H27            4.8794    -3.6724     1.6601 H       
  28 H28           -2.3255     0.7422    -0.5856 H       
  29 H29           -3.1779    -0.8151    -0.4574 H       
  30 H30           -2.5770     2.6492     3.6768 H       
  31 H31           -3.8597     1.0281     5.0125 H       
  32 H32           -4.4838    -1.1469     4.0454 H       
  33 H33           -4.0755    -3.0719     3.3442 H       
  34 H34           -5.5902    -2.3601     2.7383 H       
  35 H35           -4.8646    -3.7536     1.9017 H       
@<TRIPOS>BOND
   1    1    2 1
   2    1   22 1
   3    1   23 1
   4    2    3 2
   5    2    6 1
   6    3    4 1
   7    4    5 2
   8    4    8 1
   9    5    6 1
  10    5   24 1
  11    6   12 1
  12    7    8 2
  13    7   11 1
  14    7   25 1
  15    8    9 1
  16    9   10 2
  17    9   26 1
  18   10   11 1
  19   10   27 1
  20   12   13 1
  21   12   28 1
  22   12   29 1
  23   13   14 ar
  24   13   18 ar
  25   14   15 ar
  26   14   21 1
  27   15   16 ar
  28   15   30 1
  29   16   17 ar
  30   16   31 1
  31   17   18 ar
  32   17   32 1
  33   18   19 1
  34   19   20 1
  35   20   33 1
  36   20   34 1
  37   20   35 1

#	End of record

