#	Name: ASD01913892
#	Creating user name:	WinNT
#	Creation time:	15. 06. 2019 20:02

#	Modifying user name:	WinNT
#	Modification time:	15. 06. 2019 20:02

#	Program:	/corina/corina34_cracker 3.40 0067  02.08.2006

@<TRIPOS>MOLECULE
ASD01913892
  39   41    0    0    0
SMALL
NO_CHARGES


@<TRIPOS>ATOM
   1 C1            -0.0173     1.4278     0.0099 C.ar    
   2 C2             0.0021    -0.0041     0.0020 C.1     
   3 C3             0.0180    -1.1779    -0.0044 C.1     
   4 C4             0.0374    -2.6098    -0.0123 C.ar    
   5 C5            -1.1552    -3.3455    -0.0049 C.ar    
   6 C6             0.0738    -5.2913    -0.0270 C.ar    
   7 N7             1.2234    -4.6330    -0.0401 N.ar    
   8 C8             1.2495    -3.3128    -0.0335 C.ar    
   9 N9            -1.0933    -4.6646    -0.0125 N.ar    
  10 C10            1.1812     2.1459     0.0023 C.ar    
  11 C11            1.1562     3.5252     0.0100 C.ar    
  12 C12           -1.2350     2.1131     0.0194 C.ar    
  13 C13           -0.0518     4.1989     0.0257 C.ar    
  14 C14           -1.2456     3.4943     0.0270 C.ar    
  15 N15            0.0926    -6.6796    -0.0350 N.am    
  16 C16            1.2125    -7.4228    -0.0551 C.2     
  17 C17            0.8603    -8.8940    -0.0685 C.3     
  18 C18           -0.6318    -8.9231    -0.4731 C.3     
  19 C19           -1.1075    -7.5241    -0.0164 C.3     
  20 O20            2.3408    -6.9786    -0.0619 O.2     
  21 C21           -0.7857    -9.0931    -1.9858 C.3     
  22 C22           -1.3816   -10.0247     0.2786 C.3     
  23 F23           -2.4213     4.1596     0.0423 F       
  24 H24           -2.1103    -2.8415     0.0073 H       
  25 H25            2.1905    -2.7829    -0.0446 H       
  26 H26            2.1256     1.6221    -0.0092 H       
  27 H27            2.0824     4.0806     0.0041 H       
  28 H28           -2.1652     1.5644     0.0204 H       
  29 H29           -0.0649     5.2788     0.0320 H       
  30 H30            1.4654    -9.4244    -0.8037 H       
  31 H31            0.9954    -9.3276     0.9224 H       
  32 H32           -1.5234    -7.5770     0.9897 H       
  33 H33           -1.8497    -7.1325    -0.7120 H       
  34 H34           -0.3438   -10.0414    -2.2917 H       
  35 H35           -1.8440    -9.0845    -2.2466 H       
  36 H36           -0.2789    -8.2745    -2.4969 H       
  37 H37           -1.2918    -9.8580     1.3521 H       
  38 H38           -2.4339   -10.0067    -0.0051 H       
  39 H39           -0.9533   -10.9943     0.0245 H       
@<TRIPOS>BOND
   1    1    2 1
   2    1   10 ar
   3    1   12 ar
   4    2    3 3
   5    3    4 1
   6    4    5 ar
   7    4    8 ar
   8    5    9 ar
   9    5   24 1
  10    6    7 ar
  11    6   15 1
  12    6    9 ar
  13    7    8 ar
  14    8   25 1
  15   10   11 ar
  16   10   26 1
  17   11   13 ar
  18   11   27 1
  19   12   14 ar
  20   12   28 1
  21   13   14 ar
  22   13   29 1
  23   14   23 1
  24   15   16 am
  25   15   19 1
  26   16   17 1
  27   16   20 2
  28   17   18 1
  29   17   30 1
  30   17   31 1
  31   18   19 1
  32   18   21 1
  33   18   22 1
  34   19   32 1
  35   19   33 1
  36   21   34 1
  37   21   35 1
  38   21   36 1
  39   22   37 1
  40   22   38 1
  41   22   39 1

#	End of record

