#	Name: ASD03330908
#	Creating user name:	WinNT
#	Creation time:	15. 06. 2019 20:38

#	Modifying user name:	WinNT
#	Modification time:	15. 06. 2019 20:38

#	Program:	/corina/corina34_cracker 3.40 0067  02.08.2006

@<TRIPOS>MOLECULE
ASD03330908
  60   62    0    0    0
SMALL
NO_CHARGES


@<TRIPOS>ATOM
   1 C1            -0.6891     1.0511    -1.0290 C.2     
   2 C2            -0.4949    -0.4314    -0.8404 C.3     
   3 O3             0.2587     1.7976    -0.9644 O.2     
   4 O4            -1.9143     1.5416    -1.2741 O.3     
   5 C5             2.6054    -2.3637    -0.0797 C.2     
   6 C6             1.1228    -2.1099    -0.1705 C.3     
   7 N7             3.5476    -1.5468    -0.6347 N.pl3   
   8 N8             0.9259    -0.7116    -0.5936 N.3     
   9 C9             1.7383    -0.3948    -1.7765 C.3     
  10 C10            3.2212    -0.3326    -1.3877 C.3     
  11 C11            4.7659    -2.0783    -0.3528 C.2     
  12 N12            4.5903    -3.1793     0.3438 N.2     
  13 C13            3.2649    -3.3779     0.5322 C.2     
  14 C14            6.0700    -1.5137    -0.7613 C.ar    
  15 C15            7.0406    -2.3368    -1.3390 C.ar    
  16 C16            8.2575    -1.8039    -1.7188 C.ar    
  17 C17            8.5163    -0.4568    -1.5276 C.ar    
  18 C18            7.5558     0.3649    -0.9544 C.ar    
  19 C19            6.3339    -0.1561    -0.5768 C.ar    
  20 F20            7.8147     1.6781    -0.7706 F       
  21 F21            9.7081     0.0591    -1.8999 F       
  22 F22            6.7896    -3.6512    -1.5252 F       
  23 C23            2.6493    -4.4968     1.2671 C.2     
  24 N24            3.4273    -5.4424     1.8303 N.am    
  25 O25            1.4391    -4.5671     1.3656 O.2     
  26 C26            3.7969    -7.0943     3.5692 C.2     
  27 C27            2.8152    -6.5549     2.5610 C.3     
  28 C28            2.4339    -7.6628     1.5772 C.3     
  29 C29            3.6974    -8.2085     0.9088 C.3     
  30 O30            4.9888    -6.9767     3.3780 O.2     
  31 N31            3.3504    -7.7073     4.6833 N.am    
  32 C32            4.3013    -8.3272     5.6094 C.3     
  33 C33            1.7268    -8.7919     2.3297 C.3     
  34 C34            1.4961    -7.0961     0.5093 C.3     
  35 H35           -1.0852    -0.7697     0.0112 H       
  36 H36           -0.8183    -0.9573    -1.7386 H       
  37 H37           -1.9892     2.4990    -1.3880 H       
  38 H38            0.6780    -2.7829    -0.9035 H       
  39 H39            0.6613    -2.2685     0.8042 H       
  40 H40            1.5939    -1.1667    -2.5324 H       
  41 H41            1.4291     0.5691    -2.1808 H       
  42 H42            3.4026     0.5450    -0.7672 H       
  43 H43            3.8351    -0.2812    -2.2869 H       
  44 H44            9.0083    -2.4390    -2.1653 H       
  45 H45            5.5856     0.4853    -0.1349 H       
  46 H46            4.3925    -5.3863     1.7517 H       
  47 H47            1.9215    -6.2031     3.0764 H       
  48 H48            4.3654    -8.6122     1.6696 H       
  49 H49            3.4257    -8.9978     0.2079 H       
  50 H50            4.2011    -7.4042     0.3727 H       
  51 H51            2.3994    -7.7381     4.8719 H       
  52 H52            3.7589    -8.7696     6.4450 H       
  53 H53            4.8624    -9.1032     5.0887 H       
  54 H54            4.9902    -7.5699     5.9837 H       
  55 H55            0.7917    -8.4196     2.7483 H       
  56 H56            1.5164    -9.6109     1.6419 H       
  57 H57            2.3685    -9.1494     3.1350 H       
  58 H58            1.9999    -6.2918    -0.0268 H       
  59 H59            1.2244    -7.8855    -0.1915 H       
  60 H60            0.5960    -6.7074     0.9855 H       
@<TRIPOS>BOND
   1    1    2 1
   2    1    3 2
   3    1    4 1
   4    2    8 1
   5    2   35 1
   6    2   36 1
   7    4   37 1
   8    5    6 1
   9    5    7 1
  10    5   13 2
  11    6    8 1
  12    6   38 1
  13    6   39 1
  14    7   10 1
  15    7   11 1
  16    8    9 1
  17    9   10 1
  18    9   40 1
  19    9   41 1
  20   10   42 1
  21   10   43 1
  22   11   12 2
  23   11   14 1
  24   12   13 1
  25   13   23 1
  26   14   15 ar
  27   14   19 ar
  28   15   16 ar
  29   15   22 1
  30   16   17 ar
  31   16   44 1
  32   17   18 ar
  33   17   21 1
  34   18   19 ar
  35   18   20 1
  36   19   45 1
  37   23   24 am
  38   23   25 2
  39   24   27 1
  40   24   46 1
  41   26   30 2
  42   26   31 am
  43   26   27 1
  44   27   28 1
  45   27   47 1
  46   28   29 1
  47   28   33 1
  48   28   34 1
  49   29   48 1
  50   29   49 1
  51   29   50 1
  52   31   32 1
  53   31   51 1
  54   32   52 1
  55   32   53 1
  56   32   54 1
  57   33   55 1
  58   33   56 1
  59   33   57 1
  60   34   58 1
  61   34   59 1
  62   34   60 1

#	End of record

