#	Name: ASD03330995
#	Creating user name:	WinNT
#	Creation time:	15. 06. 2019 20:38

#	Modifying user name:	WinNT
#	Modification time:	15. 06. 2019 20:38

#	Program:	/corina/corina34_cracker 3.40 0067  02.08.2006

@<TRIPOS>MOLECULE
ASD03330995
  59   63    0    0    0
SMALL
NO_CHARGES


@<TRIPOS>ATOM
   1 C1             0.0429     1.3302     0.0263 C.2     
   2 N2             0.0683    -0.0151     0.0092 N.am    
   3 C3             1.4435    -0.5209    -0.0825 C.3     
   4 C4             2.3483     0.6695     0.3096 C.3     
   5 C5             1.4489     1.8725    -0.0384 C.3     
   6 C6             1.7665     2.3722    -1.4438 C.3     
   7 C7             0.8315     3.5353    -1.7935 C.3     
   8 N8             0.9298     4.5531    -0.7383 N.am    
   9 C9             0.7069     4.1511     0.6572 C.3     
  10 C10            1.6428     2.9833     0.9884 C.3     
  11 O11           -0.9622     2.0068     0.0806 O.2     
  12 C12            1.2198     5.8330    -1.0452 C.2     
  13 O13            1.5181     6.1323    -2.1856 O.2     
  14 N14            1.3713     8.7739     1.0639 N.pl3   
  15 C15            1.5607     8.1680    -0.1388 C.2     
  16 C16            2.0878     8.8333    -1.3833 C.3     
  17 N17            3.2845     9.6177    -1.0407 N.3     
  18 C18            2.9286    10.9803    -0.6402 C.3     
  19 C19            1.5892    11.0024     0.0905 C.3     
  20 C20            1.6846    10.1718     1.3732 C.3     
  21 C21            0.8535     7.8408     1.9145 C.2     
  22 N22            0.7443     6.7021     1.2708 N.2     
  23 C23            1.1755     6.8697     0.0010 C.2     
  24 C24            0.4787     8.0735     3.3258 C.ar    
  25 C25           -0.7735     7.6673     3.7950 C.ar    
  26 C26           -1.1185     7.8873     5.1147 C.ar    
  27 C27           -0.2259     8.5089     5.9719 C.ar    
  28 C28            1.0190     8.9142     5.5110 C.ar    
  29 C29            1.3762     8.6941     4.1954 C.ar    
  30 F30            1.8848     9.5205     6.3524 F       
  31 F31           -0.5683     8.7220     7.2613 F       
  32 F32           -1.6453     7.0612     2.9596 F       
  33 C33            4.2427     9.6295    -2.1541 C.3     
  34 H34           -0.7204    -0.5781     0.0521 H       
  35 H35            1.5878    -1.3489     0.6116 H       
  36 H36            1.6608    -0.8401    -1.1018 H       
  37 H37            2.5795     0.6500     1.3746 H       
  38 H38            3.2609     0.6791    -0.2864 H       
  39 H39            2.8012     2.7128    -1.4835 H       
  40 H40            1.6224     1.5622    -2.1589 H       
  41 H41            1.1286     3.9689    -2.7484 H       
  42 H42           -0.1946     3.1730    -1.8574 H       
  43 H43            0.9219     4.9907     1.3182 H       
  44 H44           -0.3290     3.8374     0.7862 H       
  45 H45            1.4117     2.6030     1.9835 H       
  46 H46            2.6768     3.3270     0.9614 H       
  47 H47            2.3488     8.0735    -2.1200 H       
  48 H48            1.3245     9.4940    -1.7944 H       
  49 H49            3.7027    11.3735     0.0188 H       
  50 H50            2.8625    11.6088    -1.5283 H       
  51 H51            1.3311    12.0308     0.3431 H       
  52 H52            0.8171    10.5842    -0.5553 H       
  53 H53            0.9732    10.5511     2.1067 H       
  54 H54            2.6953    10.2382     1.7760 H       
  55 H55           -2.0860     7.5742     5.4784 H       
  56 H56            2.3469     9.0059     3.8390 H       
  57 H57            3.7737    10.0730    -3.0324 H       
  58 H58            5.1177    10.2161    -1.8742 H       
  59 H59            4.5477     8.6081    -2.3818 H       
@<TRIPOS>BOND
   1    1    2 am
   2    1    5 1
   3    1   11 2
   4    2    3 1
   5    2   34 1
   6    3    4 1
   7    3   35 1
   8    3   36 1
   9    4    5 1
  10    4   37 1
  11    4   38 1
  12    5    6 1
  13    5   10 1
  14    6    7 1
  15    6   39 1
  16    6   40 1
  17    7    8 1
  18    7   41 1
  19    7   42 1
  20    8    9 1
  21    8   12 am
  22    9   10 1
  23    9   43 1
  24    9   44 1
  25   10   45 1
  26   10   46 1
  27   12   13 2
  28   12   23 1
  29   14   15 1
  30   14   20 1
  31   14   21 1
  32   15   16 1
  33   15   23 2
  34   16   17 1
  35   16   47 1
  36   16   48 1
  37   17   18 1
  38   17   33 1
  39   18   19 1
  40   18   49 1
  41   18   50 1
  42   19   20 1
  43   19   51 1
  44   19   52 1
  45   20   53 1
  46   20   54 1
  47   21   22 2
  48   21   24 1
  49   22   23 1
  50   24   25 ar
  51   24   29 ar
  52   25   26 ar
  53   25   32 1
  54   26   27 ar
  55   26   55 1
  56   27   28 ar
  57   27   31 1
  58   28   29 ar
  59   28   30 1
  60   29   56 1
  61   33   57 1
  62   33   58 1
  63   33   59 1

#	End of record

