#	Name: ASD06390010
#	Creating user name:	WinNT
#	Creation time:	15. 06. 2019 21:06

#	Modifying user name:	WinNT
#	Modification time:	15. 06. 2019 21:06

#	Program:	/corina/corina34_cracker 3.40 0067  02.08.2006

@<TRIPOS>MOLECULE
ASD06390010
  44   45    0    0    0
SMALL
NO_CHARGES


@<TRIPOS>ATOM
   1 C1            -0.0187     1.5258     0.0104 C.3     
   2 C2             0.0021    -0.0041     0.0020 C.3     
   3 S3             0.8794    -0.6050     1.4716 S.o2    
   4 O4             2.2626    -0.2896     1.3903 O.2     
   5 O5             0.1322    -0.3254     2.6475 O.2     
   6 N6             0.8281    -2.2548     1.3377 N.am    
   7 C7             1.5235    -2.9221     0.2344 C.3     
   8 C8             2.0812    -4.2622     0.7194 C.3     
   9 C9             2.8371    -4.9412    -0.4270 C.3     
  10 N10            1.9423    -5.0445    -1.5877 N.am    
  11 C11            1.2813    -3.8285    -2.0807 C.3     
  12 C12            0.5428    -3.1620    -0.9157 C.3     
  13 C13            1.7322    -6.2322    -2.1892 C.2     
  14 O14            2.2841    -7.2287    -1.7730 O.2     
  15 C15            0.8114    -6.3219    -3.3788 C.3     
  16 O16            0.7531    -7.6749    -3.8351 O.3     
  17 C17           -0.0396    -7.9302    -4.9096 C.ar    
  18 C18           -0.7460    -6.9001    -5.5116 C.ar    
  19 C19           -1.5509    -7.1614    -6.6041 C.ar    
  20 C20           -1.6526    -8.4497    -7.0977 C.ar    
  21 C21           -0.9491    -9.4799    -6.4985 C.ar    
  22 C22           -0.1385    -9.2219    -5.4092 C.ar    
  23 Cl23           0.7445   -10.5140    -4.6579 Cl      
  24 Cl24          -2.6646    -8.7747    -8.4702 Cl      
  25 H25            1.0039     1.9031     0.0027 H       
  26 H26           -0.5459     1.8868    -0.8726 H       
  27 H27           -0.5289     1.8773     0.9072 H       
  28 H28           -1.0205    -0.3814     0.0098 H       
  29 H29            0.5123    -0.3556    -0.8948 H       
  30 H30            0.3376    -2.7793     1.9898 H       
  31 H31            2.3426    -2.2921    -0.1125 H       
  32 H32            2.7617    -4.0925     1.5538 H       
  33 H33            1.2603    -4.9021     1.0432 H       
  34 H34            3.7112    -4.3460    -0.6913 H       
  35 H35            3.1512    -5.9381    -0.1178 H       
  36 H36            2.0285    -3.1426    -2.4798 H       
  37 H37            0.5687    -4.0912    -2.8625 H       
  38 H38           -0.2636    -3.8122    -0.5765 H       
  39 H39            0.1283    -2.2092    -1.2451 H       
  40 H40           -0.1869    -5.9921    -3.0913 H       
  41 H41            1.1883    -5.6846    -4.1788 H       
  42 H42           -0.6674    -5.8941    -5.1267 H       
  43 H43           -2.1014    -6.3591    -7.0728 H       
  44 H44           -1.0304   -10.4851    -6.8849 H       
@<TRIPOS>BOND
   1    1    2 1
   2    1   25 1
   3    1   26 1
   4    1   27 1
   5    2    3 1
   6    2   28 1
   7    2   29 1
   8    3    4 2
   9    3    5 2
  10    3    6 am
  11    6    7 1
  12    6   30 1
  13    7    8 1
  14    7   12 1
  15    7   31 1
  16    8    9 1
  17    8   32 1
  18    8   33 1
  19    9   10 1
  20    9   34 1
  21    9   35 1
  22   10   11 1
  23   10   13 am
  24   11   12 1
  25   11   36 1
  26   11   37 1
  27   12   38 1
  28   12   39 1
  29   13   14 2
  30   13   15 1
  31   15   16 1
  32   15   40 1
  33   15   41 1
  34   16   17 1
  35   17   18 ar
  36   17   22 ar
  37   18   19 ar
  38   18   42 1
  39   19   20 ar
  40   19   43 1
  41   20   21 ar
  42   20   24 1
  43   21   22 ar
  44   21   44 1
  45   22   23 1

#	End of record

