#	Name: ASD01870155
#	Creating user name:	WinNT
#	Creation time:	15. 06. 2019 19:38

#	Modifying user name:	WinNT
#	Modification time:	15. 06. 2019 19:38

#	Program:	/corina/corina34_cracker 3.40 0067  02.08.2006

@<TRIPOS>MOLECULE
ASD01870155
  49   51    0    0    0
SMALL
NO_CHARGES


@<TRIPOS>ATOM
   1 C1             0.3888     1.8347    -0.6475 C.2     
   2 C2             0.2796     0.3384    -0.5506 C.3     
   3 N3             1.6267    -0.2365    -0.4265 N.am    
   4 C4             2.5674     0.4359     0.4862 C.3     
   5 C5             2.8006     1.8552    -0.0381 C.3     
   6 C6             1.4969     2.4947    -0.4135 C.2     
   7 C7             1.9867    -1.3349    -1.1196 C.2     
   8 N8             1.0469    -2.0875    -1.7253 N.am    
   9 O9             3.1592    -1.6469    -1.1984 O.2     
  10 C10            1.4452    -3.1631    -2.6366 C.3     
  11 C11           -0.3729    -1.8299    -1.4724 C.3     
  12 C12            0.9149    -4.4989    -2.1117 C.3     
  13 C13            0.8649    -2.8949    -4.0267 C.3     
  14 C14            1.4592     3.9684    -0.5279 C.2     
  15 C15            1.2072     4.6718    -1.6687 C.2     
  16 N16            1.6616     4.8371     0.4747 N.2     
  17 N17            1.5582     6.0426     0.0353 N.2     
  18 N18            1.2673     5.9898    -1.3356 N.pl3   
  19 C19            0.9190     4.1005    -3.0331 C.3     
  20 C20            1.0726     7.0818    -2.1945 C.ar    
  21 C21           -0.1395     8.1925    -3.9229 C.ar    
  22 C22            0.0121     7.0915    -3.0946 C.ar    
  23 C23            1.9338     8.1736    -2.1548 C.ar    
  24 N24            1.7529     9.2021    -2.9617 N.ar    
  25 C25            0.7597     9.2375    -3.8294 C.ar    
  26 F26            2.9648     8.1812    -1.2817 F       
  27 H27           -0.4908     2.3948    -0.9288 H       
  28 H28           -0.3121     0.0723     0.3253 H       
  29 H29           -0.2012    -0.0507    -1.4481 H       
  30 H30            2.1416     0.4786     1.4887 H       
  31 H31            3.5116    -0.1083     0.5090 H       
  32 H32            3.2844     2.4506     0.7362 H       
  33 H33            3.4476     1.8141    -0.9143 H       
  34 H34            2.5327    -3.2030    -2.6984 H       
  35 H35           -0.7547    -1.1342    -2.2196 H       
  36 H36           -0.9281    -2.7661    -1.5304 H       
  37 H37           -0.4924    -1.3976    -0.4789 H       
  38 H38           -0.1726    -4.4591    -2.0499 H       
  39 H39            1.2113    -5.2992    -2.7897 H       
  40 H40            1.3284    -4.6899    -1.1214 H       
  41 H41            1.2426    -1.9433    -4.4007 H       
  42 H42            1.1612    -3.6953    -4.7047 H       
  43 H43           -0.2227    -2.8551    -3.9649 H       
  44 H44           -0.1592     4.0361    -3.1797 H       
  45 H45            1.3515     4.7471    -3.7965 H       
  46 H46            1.3561     3.1049    -3.1099 H       
  47 H47           -0.9513     8.2330    -4.6340 H       
  48 H48           -0.6764     6.2611    -3.1471 H       
  49 H49            0.6453    10.0974    -4.4728 H       
@<TRIPOS>BOND
   1    1    2 1
   2    1    6 2
   3    1   27 1
   4    2    3 1
   5    2   28 1
   6    2   29 1
   7    3    4 1
   8    3    7 am
   9    4    5 1
  10    4   30 1
  11    4   31 1
  12    5    6 1
  13    5   32 1
  14    5   33 1
  15    6   14 1
  16    7    8 am
  17    7    9 2
  18    8   10 1
  19    8   11 1
  20   10   12 1
  21   10   13 1
  22   10   34 1
  23   11   35 1
  24   11   36 1
  25   11   37 1
  26   12   38 1
  27   12   39 1
  28   12   40 1
  29   13   41 1
  30   13   42 1
  31   13   43 1
  32   14   16 1
  33   14   15 2
  34   15   18 1
  35   15   19 1
  36   16   17 2
  37   17   18 1
  38   18   20 1
  39   19   44 1
  40   19   45 1
  41   19   46 1
  42   20   23 ar
  43   20   22 ar
  44   21   22 ar
  45   21   25 ar
  46   21   47 1
  47   22   48 1
  48   23   26 1
  49   23   24 ar
  50   24   25 ar
  51   25   49 1

#	End of record

