#	Name: ASD05430093
#	Creating user name:	WinNT
#	Creation time:	15. 06. 2019 20:59

#	Modifying user name:	WinNT
#	Modification time:	15. 06. 2019 20:59

#	Program:	/corina/corina34_cracker 3.40 0067  02.08.2006

@<TRIPOS>MOLECULE
ASD05430093
  61   67    0    0    0
SMALL
NO_CHARGES


@<TRIPOS>ATOM
   1 F1             8.0058     6.8261    -4.0082 F       
   2 C2             0.1901     1.1532    -1.0597 C.ar    
   3 C3             0.0154    -0.0089    -0.3006 C.ar    
   4 C4             1.0264    -0.4590     0.5333 C.ar    
   5 C5             2.2159     0.2368     0.6211 C.ar    
   6 C6             2.4133     1.3945    -0.1241 C.ar    
   7 C7             1.3844     1.8729    -0.9869 C.ar    
   8 C8             4.8812    -0.0550    -0.0842 C.3     
   9 C9             4.8452     1.4480     0.0667 C.2     
  10 C10            3.6825     2.1253    -0.0212 C.2     
  11 C11            6.2917    -0.5161    -0.4553 C.3     
  12 C12            7.0918     0.5260    -1.2435 C.3     
  13 N13            7.2142     1.7387    -0.4357 N.pl3   
  14 C14            6.1137     2.1526     0.3127 C.2     
  15 C15            8.3249     3.6876    -1.3637 C.ar    
  16 C16            9.4141     4.0586    -2.1300 C.ar    
  17 C17            9.3081     5.1120    -3.0182 C.ar    
  18 C18            8.1105     5.7959    -3.1405 C.ar    
  19 C19            7.0203     5.4235    -2.3725 C.ar    
  20 C20            7.1286     4.3697    -1.4849 C.ar    
  21 N21           -1.1875    -0.7205    -0.3836 N.pl3   
  22 C22           -1.3243    -2.0679    -0.5975 C.2     
  23 C23           -2.6452    -2.3295    -0.6047 C.2     
  24 N24           -3.3015    -1.1775    -0.4012 N.2     
  25 C25           -2.4395    -0.2075    -0.2615 C.2     
  26 C26            7.0678    -1.0806     0.7383 C.3     
  27 S27            7.9342    -2.2262    -0.3697 S.o     
  28 C28            6.3120    -1.8994    -1.1128 C.3     
  29 O29            8.9359    -1.5216    -1.0904 O.2     
  30 C30           -3.2770    -3.6827    -0.8068 C.3     
  31 N31            1.3699     2.9497    -1.7796 N.2     
  32 C32            0.3147     3.1738    -2.4707 C.2     
  33 S33           -0.8710     1.9764    -2.1995 S.3     
  34 C34            8.4400     2.5348    -0.3999 C.3     
  35 C35            8.6272     3.0692     1.0243 C.3     
  36 O36            7.4481     3.7426     1.4529 O.3     
  37 N37            6.2231     3.0985     1.1878 N.2     
  38 H38            0.8835    -1.3566     1.1167 H       
  39 H39            2.9988    -0.1204     1.2737 H       
  40 H40            4.5853    -0.5194     0.8564 H       
  41 H41            4.1853    -0.3559    -0.8674 H       
  42 H42            3.6849     3.2053    -0.0160 H       
  43 H43            8.0841     0.1332    -1.4651 H       
  44 H44            6.5728     0.7577    -2.1736 H       
  45 H45           10.3483     3.5252    -2.0342 H       
  46 H46           10.1593     5.4018    -3.6165 H       
  47 H47            6.0856     5.9562    -2.4670 H       
  48 H48            6.2784     4.0791    -0.8857 H       
  49 H49           -0.5259    -2.7823    -0.7340 H       
  50 H50           -2.6812     0.8303    -0.0857 H       
  51 H51            7.7304    -0.3501     1.2026 H       
  52 H52            6.4301    -1.5859     1.4636 H       
  53 H53            5.5296    -2.5616    -0.7419 H       
  54 H54            6.3404    -1.8559    -2.2016 H       
  55 H55           -3.4023    -4.1730     0.1586 H       
  56 H56           -4.2505    -3.5618    -1.2820 H       
  57 H57           -2.6352    -4.2919    -1.4432 H       
  58 H58            0.1925     4.0112    -3.1418 H       
  59 H59            9.2911     1.9109    -0.6728 H       
  60 H60            8.8337     2.2377     1.6981 H       
  61 H61            9.4670     3.7638     1.0423 H       
@<TRIPOS>BOND
   1    1   18 1
   2    2    3 ar
   3    2    7 ar
   4    2   33 1
   5    3    4 ar
   6    3   21 1
   7    4    5 ar
   8    4   38 1
   9    5    6 ar
  10    5   39 1
  11    6    7 ar
  12    6   10 1
  13    7   31 1
  14    8    9 1
  15    8   11 1
  16    8   40 1
  17    8   41 1
  18    9   10 2
  19    9   14 1
  20   10   42 1
  21   11   12 1
  22   11   26 1
  23   11   28 1
  24   12   13 1
  25   12   43 1
  26   12   44 1
  27   13   14 1
  28   13   34 1
  29   14   37 2
  30   15   16 ar
  31   15   20 ar
  32   15   34 1
  33   16   17 ar
  34   16   45 1
  35   17   18 ar
  36   17   46 1
  37   18   19 ar
  38   19   20 ar
  39   19   47 1
  40   20   48 1
  41   21   22 1
  42   21   25 1
  43   22   23 2
  44   22   49 1
  45   23   24 1
  46   23   30 1
  47   24   25 2
  48   25   50 1
  49   26   27 1
  50   26   51 1
  51   26   52 1
  52   27   28 1
  53   27   29 2
  54   28   53 1
  55   28   54 1
  56   30   55 1
  57   30   56 1
  58   30   57 1
  59   31   32 2
  60   32   33 1
  61   32   58 1
  62   34   35 1
  63   34   59 1
  64   35   36 1
  65   35   60 1
  66   35   61 1
  67   36   37 1

#	End of record

