#	Name: ASD01885223
#	Creating user name:	WinNT
#	Creation time:	15. 06. 2019 19:49

#	Modifying user name:	WinNT
#	Modification time:	15. 06. 2019 19:49

#	Program:	/corina/corina34_cracker 3.40 0067  02.08.2006

@<TRIPOS>MOLECULE
ASD01885223
  46   49    0    0    0
SMALL
NO_CHARGES


@<TRIPOS>ATOM
   1 C1            -0.0164     1.3561     0.0095 C.ar    
   2 C2             0.0021    -0.0041     0.0020 C.ar    
   3 C3             1.2057    -0.7067    -0.0132 C.ar    
   4 C4             2.3988    -0.0489    -0.0211 C.ar    
   5 C5             2.4187     1.3520    -0.0137 C.ar    
   6 C6             1.1969     2.0713     0.0018 C.ar    
   7 C7             3.6407     2.0705    -0.0220 C.ar    
   8 C8             3.5791     3.4570    -0.0144 C.ar    
   9 C9             2.3316     4.0916     0.0009 C.ar    
  10 N10            1.2053     3.4044     0.0084 N.ar    
  11 C11            4.9423     1.3638    -0.0376 C.ar    
  12 C12            2.2744     5.5733     0.0088 C.2     
  13 N13            1.0821     6.2016     0.0235 N.am    
  14 O14            3.3024     6.2210     0.0021 O.2     
  15 C15            5.9189     1.7155    -0.9694 C.ar    
  16 C16            7.1295     1.0537    -0.9787 C.ar    
  17 C17            7.3756     0.0429    -0.0666 C.ar    
  18 C18            6.4108    -0.3107     0.8598 C.ar    
  19 C19            5.1985     0.3478     0.8831 C.ar    
  20 C20           -1.2997    -0.7633     0.0109 C.3     
  21 N21           -1.7352    -1.0019    -1.3674 N.am    
  22 C22           -1.4181    -2.0707    -2.1109 C.2     
  23 O23           -1.9447    -2.0501    -3.3404 O.3     
  24 C24           -2.7306    -0.8352    -3.5119 C.3     
  25 C25           -2.5971    -0.1105    -2.1586 C.3     
  26 O26           -0.7160    -2.9758    -1.7054 O.2     
  27 C27            8.6999    -0.6761    -0.0825 C.3     
  28 H28           -0.9577     1.8854     0.0168 H       
  29 H29            1.1923    -1.7866    -0.0186 H       
  30 H30            3.3248    -0.6047    -0.0325 H       
  31 H31            4.4870     4.0420    -0.0199 H       
  32 H32            0.2615     5.6845     0.0289 H       
  33 H33            1.0447     7.1709     0.0288 H       
  34 H34            5.7276     2.5038    -1.6823 H       
  35 H35            7.8865     1.3250    -1.6996 H       
  36 H36            6.6086    -1.1008     1.5690 H       
  37 H37            4.4478     0.0739     1.6096 H       
  38 H38           -1.1601    -1.7179     0.5182 H       
  39 H39           -2.0567    -0.1804     0.5354 H       
  40 H40           -2.3210    -0.2257    -4.3174 H       
  41 H41           -3.7742    -1.0799    -3.7093 H       
  42 H42           -3.5720     0.0002    -1.6838 H       
  43 H43           -2.1225     0.8617    -2.2920 H       
  44 H44            9.4011    -0.1607     0.5739 H       
  45 H45            8.5617    -1.6998     0.2655 H       
  46 H46            9.0948    -0.6879    -1.0984 H       
@<TRIPOS>BOND
   1    1    2 ar
   2    1    6 ar
   3    1   28 1
   4    2    3 ar
   5    2   20 1
   6    3    4 ar
   7    3   29 1
   8    4    5 ar
   9    4   30 1
  10    5    7 ar
  11    5    6 ar
  12    6   10 ar
  13    7    8 ar
  14    7   11 1
  15    8    9 ar
  16    8   31 1
  17    9   10 ar
  18    9   12 1
  19   11   15 ar
  20   11   19 ar
  21   12   13 am
  22   12   14 2
  23   13   32 1
  24   13   33 1
  25   15   16 ar
  26   15   34 1
  27   16   17 ar
  28   16   35 1
  29   17   18 ar
  30   17   27 1
  31   18   19 ar
  32   18   36 1
  33   19   37 1
  34   20   21 1
  35   20   38 1
  36   20   39 1
  37   21   22 am
  38   21   25 1
  39   22   23 1
  40   22   26 2
  41   23   24 1
  42   24   25 1
  43   24   40 1
  44   24   41 1
  45   25   42 1
  46   25   43 1
  47   27   44 1
  48   27   45 1
  49   27   46 1

#	End of record

