#	Name: ASD04882346
#	Creating user name:	WinNT
#	Creation time:	15. 06. 2019 20:54

#	Modifying user name:	WinNT
#	Modification time:	15. 06. 2019 20:54

#	Program:	/corina/corina34_cracker 3.40 0067  02.08.2006

@<TRIPOS>MOLECULE
ASD04882346
  85   89    0    0    0
SMALL
NO_CHARGES


@<TRIPOS>ATOM
   1 N1            -0.0169     1.3970     0.0097 N.am    
   2 C2             0.1097     0.0022    -0.0340 C.ar    
   3 C3            -1.0276    -0.8061     0.0459 C.ar    
   4 C4            -0.9035    -2.1901     0.0027 C.ar    
   5 C5             0.3399    -2.7696    -0.1194 C.ar    
   6 C6             1.4813    -1.9670    -0.2002 C.ar    
   7 C7             1.3589    -0.5752    -0.1618 C.ar    
   8 N8            -2.2868    -0.2245     0.1694 N.3     
   9 C9            -3.1529    -0.5995    -0.9571 C.3     
  10 C10           -2.9095    -0.5838     1.4511 C.3     
  11 C11           -4.2532     0.1370     1.5823 C.3     
  12 N12           -5.1193    -0.2379     0.4558 N.3     
  13 C13           -4.4966     0.1214    -0.8259 C.3     
  14 C14            2.8132    -2.5880    -0.3310 C.2     
  15 O15            3.8057    -1.8890    -0.4012 O.2     
  16 C16            0.9210     2.1770    -0.5632 C.2     
  17 C17            0.7439     3.6400    -0.5949 C.2     
  18 O18            1.9136     1.6738    -1.0541 O.2     
  19 N19            2.9298    -3.9300    -0.3726 N.am    
  20 C20           -6.3823     0.3455     0.5797 C.ar    
  21 C21           -7.5142    -0.4555     0.6592 C.ar    
  22 C22           -6.5087     1.7281     0.6293 C.ar    
  23 C23           -7.7588     2.3016     0.7518 C.ar    
  24 C24           -8.8843     1.5012     0.8255 C.ar    
  25 C25           -8.7617     0.1247     0.7817 C.ar    
  26 C26           -7.3815    -1.9559     0.6116 C.3     
  27 N27           -0.3086     4.3381    -0.0886 N.2     
  28 C28            1.6053     4.5474    -1.1308 C.2     
  29 O29            1.0608     5.7606    -0.9457 O.3     
  30 C30           -0.1072     5.6030    -0.3070 C.2     
  31 C31           -1.0393     6.7170     0.0944 C.3     
  32 C32           -1.2216     6.7071     1.6135 C.3     
  33 C33           -0.4466     8.0592    -0.3394 C.3     
  34 C34           -2.3962     6.5158    -0.5834 C.3     
  35 C35            4.2524    -4.5467    -0.5024 C.3     
  36 C36            4.1051    -6.0694    -0.5251 C.3     
  37 C37            5.4863    -6.7134    -0.6607 C.3     
  38 N38            5.3453    -8.1714    -0.6825 N.am    
  39 C39            5.1603    -8.9674    -1.9016 C.3     
  40 C40            4.6330   -10.3381    -1.4228 C.3     
  41 C41            5.1853   -10.4019     0.0201 C.3     
  42 C42            5.3745    -8.9527     0.4109 C.2     
  43 O43            5.5234    -8.5532     1.5463 O.2     
  44 H44           -0.7817     1.8010     0.4488 H       
  45 H45           -1.7840    -2.8123     0.0653 H       
  46 H46            0.4331    -3.8451    -0.1524 H       
  47 H47            2.2391     0.0475    -0.2241 H       
  48 H48           -2.6758    -0.3119    -1.8940 H       
  49 H49           -3.3159    -1.6772    -0.9474 H       
  50 H50           -3.0697    -1.6614     1.4881 H       
  51 H51           -2.2550    -0.2849     2.2698 H       
  52 H52           -4.7302    -0.1506     2.5192 H       
  53 H53           -4.0902     1.2147     1.5726 H       
  54 H54           -4.3364     1.1989    -0.8629 H       
  55 H55           -5.1511    -0.1776    -1.6446 H       
  56 H56            2.1381    -4.4876    -0.3165 H       
  57 H57           -5.6301     2.3537     0.5725 H       
  58 H58           -7.8577     3.3764     0.7904 H       
  59 H59           -9.8608     1.9523     0.9219 H       
  60 H60           -9.6426    -0.4974     0.8394 H       
  61 H61           -7.2601    -2.3422     1.6236 H       
  62 H62           -8.2773    -2.3858     0.1635 H       
  63 H63           -6.5110    -2.2248     0.0132 H       
  64 H64            2.5475     4.3324    -1.6129 H       
  65 H65           -0.2549     6.8504     2.0963 H       
  66 H66           -1.8958     7.5128     1.9038 H       
  67 H67           -1.6438     5.7509     1.9225 H       
  68 H68           -0.3168     8.0663    -1.4216 H       
  69 H69           -1.1209     8.8649    -0.0490 H       
  70 H70            0.5200     8.2026     0.1435 H       
  71 H71           -2.8184     5.5596    -0.2743 H       
  72 H72           -3.0704     7.3215    -0.2930 H       
  73 H73           -2.2663     6.5229    -1.6656 H       
  74 H74            4.7195    -4.2129    -1.4289 H       
  75 H75            4.8742    -4.2544     0.3438 H       
  76 H76            3.6380    -6.4031     0.4014 H       
  77 H77            3.4833    -6.3617    -1.3713 H       
  78 H78            5.9535    -6.3796    -1.5873 H       
  79 H79            6.1081    -6.4211     0.1855 H       
  80 H80            4.4310    -8.4904    -2.5564 H       
  81 H81            6.1112    -9.0893    -2.4204 H       
  82 H82            3.5432   -10.3592    -1.4247 H       
  83 H83            5.0383   -11.1463    -2.0316 H       
  84 H84            4.4683   -10.8878     0.6818 H       
  85 H85            6.1406   -10.9263     0.0401 H       
@<TRIPOS>BOND
   1    1    2 1
   2    1   16 am
   3    1   44 1
   4    2    3 ar
   5    2    7 ar
   6    3    4 ar
   7    3    8 1
   8    4    5 ar
   9    4   45 1
  10    5    6 ar
  11    5   46 1
  12    6    7 ar
  13    6   14 1
  14    7   47 1
  15    8    9 1
  16    8   10 1
  17    9   13 1
  18    9   48 1
  19    9   49 1
  20   10   11 1
  21   10   50 1
  22   10   51 1
  23   11   12 1
  24   11   52 1
  25   11   53 1
  26   12   13 1
  27   12   20 1
  28   13   54 1
  29   13   55 1
  30   14   15 2
  31   14   19 am
  32   16   18 2
  33   16   17 1
  34   17   27 1
  35   17   28 2
  36   19   35 1
  37   19   56 1
  38   20   21 ar
  39   20   22 ar
  40   21   26 1
  41   21   25 ar
  42   22   23 ar
  43   22   57 1
  44   23   24 ar
  45   23   58 1
  46   24   25 ar
  47   24   59 1
  48   25   60 1
  49   26   61 1
  50   26   62 1
  51   26   63 1
  52   27   30 2
  53   28   29 1
  54   28   64 1
  55   29   30 1
  56   30   31 1
  57   31   32 1
  58   31   33 1
  59   31   34 1
  60   32   65 1
  61   32   66 1
  62   32   67 1
  63   33   68 1
  64   33   69 1
  65   33   70 1
  66   34   71 1
  67   34   72 1
  68   34   73 1
  69   35   36 1
  70   35   74 1
  71   35   75 1
  72   36   37 1
  73   36   76 1
  74   36   77 1
  75   37   38 1
  76   37   78 1
  77   37   79 1
  78   38   39 1
  79   38   42 am
  80   39   40 1
  81   39   80 1
  82   39   81 1
  83   40   41 1
  84   40   82 1
  85   40   83 1
  86   41   42 1
  87   41   84 1
  88   41   85 1
  89   42   43 2

#	End of record

