#	Name: ASD02562068
#	Creating user name:	WinNT
#	Creation time:	15. 06. 2019 20:25

#	Modifying user name:	WinNT
#	Modification time:	15. 06. 2019 20:25

#	Program:	/corina/corina34_cracker 3.40 0067  02.08.2006

@<TRIPOS>MOLECULE
ASD02562068
  46   49    0    0    0
SMALL
NO_CHARGES


@<TRIPOS>ATOM
   1 C1             0.0965     0.9527     1.1012 C.2     
   2 C2             0.2526    -0.4449     1.1162 C.2     
   3 C3             1.4403    -1.0011     0.8048 C.2     
   4 N4             2.5110    -0.2161     0.4701 N.pl3   
   5 C5             2.3884     1.1544     0.4469 C.2     
   6 C6             1.1492     1.7467     0.7708 C.2     
   7 C7             3.7985    -0.5155     0.1202 C.2     
   8 C8             4.4386     0.6840    -0.1106 C.2     
   9 N9             3.5528     1.6756     0.0970 N.2     
  10 N10            4.3574    -1.7897     0.0170 N.3     
  11 C11            5.8539     0.8517    -0.5155 C.ar    
  12 C12            3.3288    -2.8288     0.1587 C.3     
  13 C13            3.8052    -4.1141    -0.5210 C.3     
  14 C14            2.7338    -5.1964    -0.3735 C.3     
  15 C15            2.4836    -5.4673     1.1114 C.3     
  16 C16            2.0071    -4.1820     1.7910 C.3     
  17 C17            3.0785    -3.0997     1.6435 C.3     
  18 C18            6.8599     0.1526     0.1501 C.ar    
  19 C19            8.1766     0.3125    -0.2318 C.ar    
  20 C20            8.4997     1.1646    -1.2724 C.ar    
  21 C21            7.5066     1.8619    -1.9371 C.ar    
  22 C22            6.1852     1.7059    -1.5686 C.ar    
  23 Cl23           4.9400     2.5814    -2.4033 Cl      
  24 C24           -0.9141    -1.3255     1.4829 C.3     
  25 H25           -0.8582     1.3937     1.3472 H       
  26 H26            1.5484    -2.0756     0.8196 H       
  27 H27            1.0382     2.8209     0.7564 H       
  28 H28            4.8603    -1.8947    -0.8514 H       
  29 H29            2.4043    -2.4912    -0.3099 H       
  30 H30            3.9835    -3.9211    -1.5789 H       
  31 H31            4.7296    -4.4517    -0.0525 H       
  32 H32            1.8094    -4.8588    -0.8421 H       
  33 H33            3.0732    -6.1120    -0.8578 H       
  34 H34            1.7203    -6.2383     1.2164 H       
  35 H35            3.4080    -5.8049     1.5799 H       
  36 H36            1.0827    -3.8444     1.3225 H       
  37 H37            1.8289    -4.3750     2.8489 H       
  38 H38            4.0030    -3.4374     2.1121 H       
  39 H39            2.7391    -2.1841     2.1278 H       
  40 H40            6.6094    -0.5126     0.9632 H       
  41 H41            8.9564    -0.2288     0.2833 H       
  42 H42            9.5316     1.2863    -1.5670 H       
  43 H43            7.7652     2.5263    -2.7483 H       
  44 H44           -1.7829    -0.7048     1.7021 H       
  45 H45           -1.1433    -1.9904     0.6502 H       
  46 H46           -0.6600    -1.9181     2.3618 H       
@<TRIPOS>BOND
   1    1    2 1
   2    1    6 2
   3    1   25 1
   4    2    3 2
   5    2   24 1
   6    3    4 1
   7    3   26 1
   8    4    5 1
   9    4    7 1
  10    5    6 1
  11    5    9 2
  12    6   27 1
  13    7    8 2
  14    7   10 1
  15    8    9 1
  16    8   11 1
  17   10   12 1
  18   10   28 1
  19   11   18 ar
  20   11   22 ar
  21   12   13 1
  22   12   17 1
  23   12   29 1
  24   13   14 1
  25   13   30 1
  26   13   31 1
  27   14   15 1
  28   14   32 1
  29   14   33 1
  30   15   16 1
  31   15   34 1
  32   15   35 1
  33   16   17 1
  34   16   36 1
  35   16   37 1
  36   17   38 1
  37   17   39 1
  38   18   19 ar
  39   18   40 1
  40   19   20 ar
  41   19   41 1
  42   20   21 ar
  43   20   42 1
  44   21   22 ar
  45   21   43 1
  46   22   23 1
  47   24   44 1
  48   24   45 1
  49   24   46 1

#	End of record

