#	Name: ASD01320007
#	Creating user name:	WinNT
#	Creation time:	15. 06. 2019 19:15

#	Modifying user name:	WinNT
#	Modification time:	15. 06. 2019 19:15

#	Program:	/corina/corina34_cracker 3.40 0067  02.08.2006

@<TRIPOS>MOLECULE
ASD01320007
  43   45    0    0    0
SMALL
NO_CHARGES


@<TRIPOS>ATOM
   1 C1            -0.0058     1.6769     0.1783 C.ar    
   2 C2             0.0103     0.2972     0.2610 C.ar    
   3 C3             1.2034    -0.3922     0.1137 C.ar    
   4 C4             2.3850     0.3090    -0.1181 C.ar    
   5 C5             2.3606     1.6938    -0.2002 C.ar    
   6 C6             1.1665     2.3735    -0.0517 C.ar    
   7 O7             1.2210    -1.7491     0.1956 O.3     
   8 C8             0.0409    -2.3912     0.3856 C.ar    
   9 C9            -0.8103    -2.6072    -0.6911 C.ar    
  10 C10           -2.0196    -3.2648    -0.4981 C.ar    
  11 C11           -2.3737    -3.7085     0.7915 C.ar    
  12 C12           -1.5085    -3.4840     1.8615 C.ar    
  13 C13           -0.3087    -2.8352     1.6556 C.ar    
  14 N14            3.5937    -0.3819    -0.2672 N.am    
  15 C15            4.7542     0.2070     0.0834 C.2     
  16 C16            6.0152    -0.5621     0.0413 C.ar    
  17 O17            4.7636     1.3710     0.4343 O.2     
  18 C18            7.2187     0.0452     0.4039 C.ar    
  19 C19            8.3933    -0.6786     0.3625 C.ar    
  20 C20            8.3786    -2.0052    -0.0385 C.ar    
  21 C21            7.1871    -2.6121    -0.3997 C.ar    
  22 C22            6.0066    -1.9009    -0.3558 C.ar    
  23 Cl23           9.8913     0.0741     0.8129 Cl      
  24 Cl24           9.8596    -2.9097    -0.0889 Cl      
  25 C25           -2.9298    -3.4971    -1.6401 C.2     
  26 O26           -3.3124    -4.6217    -1.8927 O.2     
  27 O27           -3.3347    -2.4613    -2.4001 O.3     
  28 C28           -3.6552    -4.4075     1.0089 C.2     
  29 O29           -4.4576    -4.5010     0.1015 O.2     
  30 O30           -3.9353    -4.9419     2.2136 O.3     
  31 H31           -0.9372     2.2122     0.2893 H       
  32 H32           -0.9071    -0.2436     0.4407 H       
  33 H33            3.2746     2.2405    -0.3793 H       
  34 H34            1.1488     3.4514    -0.1162 H       
  35 H35           -0.5328    -2.2641    -1.6769 H       
  36 H36           -1.7759    -3.8224     2.8516 H       
  37 H37            0.3585    -2.6634     2.4872 H       
  38 H38            3.5958    -1.2843    -0.6229 H       
  39 H39            7.2308     1.0791     0.7158 H       
  40 H40            7.1820    -3.6459    -0.7120 H       
  41 H41            5.0784    -2.3755    -0.6377 H       
  42 H42           -3.9296    -2.6625    -3.1355 H       
  43 H43           -4.7871    -5.3899     2.3079 H       
@<TRIPOS>BOND
   1    1    2 ar
   2    1    6 ar
   3    1   31 1
   4    2    3 ar
   5    2   32 1
   6    3    4 ar
   7    3    7 1
   8    4    5 ar
   9    4   14 1
  10    5    6 ar
  11    5   33 1
  12    6   34 1
  13    7    8 1
  14    8    9 ar
  15    8   13 ar
  16    9   10 ar
  17    9   35 1
  18   10   11 ar
  19   10   25 1
  20   11   12 ar
  21   11   28 1
  22   12   13 ar
  23   12   36 1
  24   13   37 1
  25   14   15 am
  26   14   38 1
  27   15   16 1
  28   15   17 2
  29   16   18 ar
  30   16   22 ar
  31   18   19 ar
  32   18   39 1
  33   19   20 ar
  34   19   23 1
  35   20   21 ar
  36   20   24 1
  37   21   22 ar
  38   21   40 1
  39   22   41 1
  40   25   26 2
  41   25   27 1
  42   27   42 1
  43   28   29 2
  44   28   30 1
  45   30   43 1

#	End of record

