#	Name: ASD01910521
#	Creating user name:	WinNT
#	Creation time:	15. 06. 2019 19:56

#	Modifying user name:	WinNT
#	Modification time:	15. 06. 2019 19:56

#	Program:	/corina/corina34_cracker 3.40 0067  02.08.2006

@<TRIPOS>MOLECULE
ASD01910521
  41   44    0    0    0
SMALL
NO_CHARGES


@<TRIPOS>ATOM
   1 N1            -0.0635     2.9003     0.8065 N.2     
   2 C2            -0.1440     1.8733    -0.0030 C.2     
   3 N3             1.1221     1.5281    -0.3356 N.2     
   4 C4             1.8950     2.3740     0.2980 C.2     
   5 O5             1.0985     3.1972     0.9872 O.3     
   6 C6            -1.3837     1.2151    -0.4657 C.2     
   7 N7            -2.6638     1.5715    -0.1235 N.pl3   
   8 C8            -3.5311     0.7301    -0.7497 C.2     
   9 C9            -2.8180    -0.1534    -1.4829 C.2     
  10 C10           -1.4587     0.1499    -1.3127 C.2     
  11 C11            3.9553     2.2155     1.6724 C.3     
  12 C12            3.4010     2.4123     0.2579 C.3     
  13 C13            3.8632     3.7673    -0.2829 C.3     
  14 C14            5.3917     3.7952    -0.3549 C.3     
  15 C15            5.9686     3.6141     1.0527 C.3     
  16 N16            5.4144     2.3849     1.6363 N.am    
  17 C17            6.2288     1.4307     2.1288 C.2     
  18 C18            7.6893     1.5571     1.9752 C.2     
  19 O19            5.7588     0.4654     2.7000 O.2     
  20 C20            8.4537     1.9816     0.7923 C.2     
  21 N21            9.7018     1.9298     1.1527 N.2     
  22 O22            9.8337     1.5653     2.2953 O.3     
  23 C23            8.6722     1.3133     2.9033 C.2     
  24 C24            8.4785     0.8439     4.3221 C.3     
  25 H25           -2.9096     2.3012     0.4665 H       
  26 H26           -4.6079     0.7628    -0.6734 H       
  27 H27           -3.2220    -0.9477    -2.0930 H       
  28 H28           -0.6259    -0.3685    -1.7644 H       
  29 H29            3.5180     2.9555     2.3425 H       
  30 H30            3.7125     1.2126     2.0237 H       
  31 H31            3.7685     1.6172    -0.3908 H       
  32 H32            3.4499     3.9206    -1.2797 H       
  33 H33            3.5164     4.5602     0.3798 H       
  34 H34            5.7404     2.9871    -0.9978 H       
  35 H35            5.7193     4.7518    -0.7620 H       
  36 H36            7.0541     3.5340     0.9951 H       
  37 H37            5.6954     4.4682     1.6723 H       
  38 H38            8.0616     2.2741    -0.1706 H       
  39 H39            9.4500     0.7329     4.8040 H       
  40 H40            7.8833     1.5753     4.8688 H       
  41 H41            7.9623    -0.1161     4.3199 H       
@<TRIPOS>BOND
   1    1    2 2
   2    1    5 1
   3    2    3 1
   4    2    6 1
   5    3    4 2
   6    4    5 1
   7    4   12 1
   8    6    7 1
   9    6   10 2
  10    7    8 1
  11    7   25 1
  12    8    9 2
  13    8   26 1
  14    9   10 1
  15    9   27 1
  16   10   28 1
  17   11   12 1
  18   11   16 1
  19   11   29 1
  20   11   30 1
  21   12   13 1
  22   12   31 1
  23   13   14 1
  24   13   32 1
  25   13   33 1
  26   14   15 1
  27   14   34 1
  28   14   35 1
  29   15   16 1
  30   15   36 1
  31   15   37 1
  32   16   17 am
  33   17   18 1
  34   17   19 2
  35   18   20 1
  36   18   23 2
  37   20   21 2
  38   20   38 1
  39   21   22 1
  40   22   23 1
  41   23   24 1
  42   24   39 1
  43   24   40 1
  44   24   41 1

#	End of record

