#	Name: ASD01208227
#	Creating user name:	WinNT
#	Creation time:	15. 06. 2019 19:09

#	Modifying user name:	WinNT
#	Modification time:	15. 06. 2019 19:09

#	Program:	/corina/corina34_cracker 3.40 0067  02.08.2006

@<TRIPOS>MOLECULE
ASD01208227
  61   64    0    0    0
SMALL
NO_CHARGES


@<TRIPOS>ATOM
   1 O1             0.4447     1.1566    -2.6067 O.3     
   2 C2             0.4301    -0.0832    -2.0787 C.2     
   3 N3             1.6712    -0.4914    -1.9326 N.2     
   4 C4             2.4953     0.4762    -2.3628 C.2     
   5 C5             1.7333     1.5105    -2.7860 C.2     
   6 N6            -0.7955    -2.1143    -1.1865 N.pl3   
   7 C7            -0.7719    -0.8503    -1.7250 C.2     
   8 C8            -2.0764    -0.4296    -1.8744 C.2     
   9 C9            -2.9035    -1.4588    -1.4177 C.2     
  10 C10           -2.1029    -2.4829    -1.0000 C.2     
  11 C11           -2.5666    -3.7701    -0.4425 C.ar    
  12 C12           -3.9329    -4.0216    -0.3044 C.ar    
  13 C13           -4.3631    -5.2295     0.2181 C.ar    
  14 C14           -3.4385    -6.1894     0.6047 C.ar    
  15 C15           -2.0795    -5.9437     0.4697 C.ar    
  16 C16           -1.6403    -4.7404    -0.0578 C.ar    
  17 O17           -1.1783    -6.8867     0.8507 O.3     
  18 C18           -0.5377    -6.7147     2.0367 C.ar    
  19 C19            0.4144    -7.6346     2.4522 C.ar    
  20 C20            1.0645    -7.4571     3.6580 C.ar    
  21 C21            0.7671    -6.3639     4.4508 C.ar    
  22 C22           -0.1812    -5.4458     4.0391 C.ar    
  23 C23           -0.8304    -5.6157     2.8317 C.ar    
  24 S24            1.5978    -6.1408     5.9886 S.o2    
  25 O25            0.6889    -5.3779     6.7704 O.2     
  26 O26            1.9746    -7.4547     6.3772 O.2     
  27 C27            3.0628    -5.1551     5.5729 C.3     
  28 O28           -5.6930    -5.4753     0.3529 O.3     
  29 C29           -6.0691    -6.7741     0.8151 C.3     
  30 C30           -7.4923    -7.0886     0.3500 C.3     
  31 C31           -6.0130    -6.8075     2.3437 C.3     
  32 O32           -8.4077    -6.1857     0.9736 O.3     
  33 C33           -9.7724    -6.3946     0.6048 C.3     
  34 O34            2.1823     2.6856    -3.2961 O.3     
  35 C35            1.1956     3.6447    -3.6816 C.3     
  36 H36            3.5745     0.4363    -2.3699 H       
  37 H37           -0.0185    -2.6561    -0.9776 H       
  38 H38           -2.3996     0.5212    -2.2718 H       
  39 H39           -3.9833    -1.4464    -1.3981 H       
  40 H40           -4.6532    -3.2749    -0.6044 H       
  41 H41           -3.7776    -7.1303     1.0122 H       
  42 H42           -0.5825    -4.5516    -0.1667 H       
  43 H43            0.6467    -8.4888     1.8335 H       
  44 H44            1.8054    -8.1730     3.9821 H       
  45 H45           -0.4119    -4.5929     4.6604 H       
  46 H46           -1.5681    -4.8961     2.5087 H       
  47 H47            2.7505    -4.2058     5.1377 H       
  48 H48            3.6426    -4.9672     6.4766 H       
  49 H49            3.6755    -5.7000     4.8548 H       
  50 H50           -5.3820    -7.5170     0.4100 H       
  51 H51           -7.5535    -6.9779    -0.7327 H       
  52 H52           -7.7469    -8.1120     0.6255 H       
  53 H53           -6.2999    -7.7982     2.6962 H       
  54 H54           -4.9991    -6.5835     2.6751 H       
  55 H55           -6.7001    -6.0646     2.7488 H       
  56 H56          -10.4030    -5.6701     1.1201 H       
  57 H57           -9.8809    -6.2696    -0.4725 H       
  58 H58          -10.0742    -7.4037     0.8857 H       
  59 H59            0.5546     3.2167    -4.4524 H       
  60 H60            0.5918     3.9133    -2.8148 H       
  61 H61            1.6877     4.5355    -4.0718 H       
@<TRIPOS>BOND
   1    1    2 1
   2    1    5 1
   3    2    3 2
   4    2    7 1
   5    3    4 1
   6    4    5 2
   7    4   36 1
   8    5   34 1
   9    6    7 1
  10    6   10 1
  11    6   37 1
  12    7    8 2
  13    8    9 1
  14    8   38 1
  15    9   10 2
  16    9   39 1
  17   10   11 1
  18   11   12 ar
  19   11   16 ar
  20   12   13 ar
  21   12   40 1
  22   13   14 ar
  23   13   28 1
  24   14   15 ar
  25   14   41 1
  26   15   16 ar
  27   15   17 1
  28   16   42 1
  29   17   18 1
  30   18   19 ar
  31   18   23 ar
  32   19   20 ar
  33   19   43 1
  34   20   21 ar
  35   20   44 1
  36   21   22 ar
  37   21   24 1
  38   22   23 ar
  39   22   45 1
  40   23   46 1
  41   24   25 2
  42   24   26 2
  43   24   27 1
  44   27   47 1
  45   27   48 1
  46   27   49 1
  47   28   29 1
  48   29   30 1
  49   29   31 1
  50   29   50 1
  51   30   32 1
  52   30   51 1
  53   30   52 1
  54   31   53 1
  55   31   54 1
  56   31   55 1
  57   32   33 1
  58   33   56 1
  59   33   57 1
  60   33   58 1
  61   34   35 1
  62   35   59 1
  63   35   60 1
  64   35   61 1

#	End of record

