#	Name: ASD01914368
#	Creating user name:	WinNT
#	Creation time:	15. 06. 2019 20:03

#	Modifying user name:	WinNT
#	Modification time:	15. 06. 2019 20:03

#	Program:	/corina/corina34_cracker 3.40 0067  02.08.2006

@<TRIPOS>MOLECULE
ASD01914368
  32   34    0    0    0
SMALL
NO_CHARGES


@<TRIPOS>ATOM
   1 C1            -0.0144     1.3493    -0.0034 C.ar    
   2 C2            -0.0103    -0.0272     0.0059 C.ar    
   3 C3            -1.2770    -0.8435     0.0088 C.3     
   4 C4            -2.4599    -0.0098     0.4983 C.3     
   5 N5            -2.4348     1.2776    -0.2154 N.am    
   6 C6            -1.2856     2.1577     0.0245 C.3     
   7 C7            -3.4275     1.6335    -1.0548 C.2     
   8 C8            -3.4400     2.9839    -1.6535 C.ar    
   9 O9            -4.3126     0.8431    -1.3191 O.2     
  10 C10            1.1953     2.0346    -0.0254 C.ar    
  11 C11            2.3748     1.3075    -0.0287 C.ar    
  12 C12            2.3054    -0.0736    -0.0094 C.ar    
  13 N13            1.1419    -0.6863     0.0073 N.ar    
  14 Br14           4.0484     2.1873    -0.0598 Br      
  15 C15           -3.9123     3.1692    -2.9546 C.ar    
  16 C16           -3.9222     4.4315    -3.5082 C.ar    
  17 C17           -3.4643     5.5161    -2.7758 C.ar    
  18 C18           -2.9938     5.3376    -1.4838 C.ar    
  19 C19           -2.9849     4.0806    -0.9184 C.ar    
  20 F20           -3.4761     6.7512    -3.3232 F       
  21 H21           -1.4798    -1.1942    -1.0031 H       
  22 H22           -1.1479    -1.7033     0.6663 H       
  23 H23           -3.3924    -0.5319     0.2840 H       
  24 H24           -2.3710     0.1618     1.5710 H       
  25 H25           -1.3911     2.6347     0.9989 H       
  26 H26           -1.2463     2.9226    -0.7511 H       
  27 H27            1.2152     3.1143    -0.0400 H       
  28 H28            3.2158    -0.6547    -0.0080 H       
  29 H29           -4.2688     2.3250    -3.5261 H       
  30 H30           -4.2869     4.5759    -4.5145 H       
  31 H31           -2.6380     6.1858    -0.9177 H       
  32 H32           -2.6186     3.9427     0.0882 H       
@<TRIPOS>BOND
   1    1    2 ar
   2    1   10 ar
   3    1    6 1
   4    2    3 1
   5    2   13 ar
   6    3    4 1
   7    3   21 1
   8    3   22 1
   9    4    5 1
  10    4   23 1
  11    4   24 1
  12    5    6 1
  13    5    7 am
  14    6   25 1
  15    6   26 1
  16    7    8 1
  17    7    9 2
  18    8   15 ar
  19    8   19 ar
  20   10   11 ar
  21   10   27 1
  22   11   12 ar
  23   11   14 1
  24   12   13 ar
  25   12   28 1
  26   15   16 ar
  27   15   29 1
  28   16   17 ar
  29   16   30 1
  30   17   18 ar
  31   17   20 1
  32   18   19 ar
  33   18   31 1
  34   19   32 1

#	End of record

