#	Name: ASD09200001
#	Creating user name:	WinNT
#	Creation time:	15. 06. 2019 21:21

#	Modifying user name:	WinNT
#	Modification time:	15. 06. 2019 21:21

#	Program:	/corina/corina34_cracker 3.40 0067  02.08.2006

@<TRIPOS>MOLECULE
ASD09200001
  42   44    0    0    0
SMALL
NO_CHARGES


@<TRIPOS>ATOM
   1 C1             0.0001     1.3973     0.2124 C.ar    
   2 C2             1.0513     1.7782     1.0272 C.ar    
   3 C3             2.2543     1.1052     0.9671 C.ar    
   4 C4             2.4107     0.0383     0.0828 C.ar    
   5 C5             1.3482    -0.3425    -0.7370 C.ar    
   6 C6             0.1476     0.3395    -0.6678 C.ar    
   7 C7             3.7007    -0.6877     0.0139 C.ar    
   8 C8             4.8992     0.0227    -0.1498 C.ar    
   9 N9             6.0504    -0.6325    -0.2104 N.ar    
  10 C10            6.0645    -1.9572    -0.1159 C.ar    
  11 C11            4.8732    -2.6592     0.0465 C.ar    
  12 N12            3.7251    -2.0124     0.1125 N.ar    
  13 N13            7.2706    -2.6439    -0.1798 N.3     
  14 C14            8.3958    -1.7163    -0.3528 C.3     
  15 C15            9.6861    -2.5114    -0.5645 C.3     
  16 C16            9.9274    -3.4156     0.6474 C.3     
  17 C17            8.7200    -4.3384     0.8343 C.3     
  18 C18            7.4576    -3.4904     1.0055 C.3     
  19 C19           11.1835    -4.2577     0.4150 C.3     
  20 N20           10.1044    -2.5892     1.8490 N.3     
  21 N21            4.8801     1.4067    -0.2485 N.pl3   
  22 Cl22          -1.1768    -0.1316    -1.6865 Cl      
  23 Cl23           1.5333    -1.6689    -1.8415 Cl      
  24 H24           -0.9409     1.9247     0.2666 H       
  25 H25            0.9301     2.6047     1.7118 H       
  26 H26            3.0737     1.4044     1.6038 H       
  27 H27            4.8893    -3.7364     0.1228 H       
  28 H28            8.2135    -1.0820    -1.2203 H       
  29 H29            8.4941    -1.0947     0.5372 H       
  30 H30            9.5937    -3.1228    -1.4621 H       
  31 H31           10.5235    -1.8228    -0.6773 H       
  32 H32            8.6123    -4.9786    -0.0413 H       
  33 H33            8.8671    -4.9551     1.7209 H       
  34 H34            7.5603    -2.8604     1.8891 H       
  35 H35            6.5940    -4.1446     1.1245 H       
  36 H36           12.0415    -3.5999     0.2765 H       
  37 H37           11.3545    -4.9010     1.2781 H       
  38 H38           11.0493    -4.8722    -0.4752 H       
  39 H39           10.2652    -3.1639     2.6626 H       
  40 H40           10.8519    -1.9234     1.7230 H       
  41 H41            4.0339     1.8767    -0.3123 H       
  42 H42            5.7128     1.9041    -0.2538 H       
@<TRIPOS>BOND
   1    1    2 ar
   2    1    6 ar
   3    1   24 1
   4    2    3 ar
   5    2   25 1
   6    3    4 ar
   7    3   26 1
   8    4    5 ar
   9    4    7 1
  10    5    6 ar
  11    5   23 1
  12    6   22 1
  13    7    8 ar
  14    7   12 ar
  15    8    9 ar
  16    8   21 1
  17    9   10 ar
  18   10   11 ar
  19   10   13 1
  20   11   12 ar
  21   11   27 1
  22   13   14 1
  23   13   18 1
  24   14   15 1
  25   14   28 1
  26   14   29 1
  27   15   16 1
  28   15   30 1
  29   15   31 1
  30   16   17 1
  31   16   19 1
  32   16   20 1
  33   17   18 1
  34   17   32 1
  35   17   33 1
  36   18   34 1
  37   18   35 1
  38   19   36 1
  39   19   37 1
  40   19   38 1
  41   20   39 1
  42   20   40 1
  43   21   41 1
  44   21   42 1

#	End of record

