#	Name: ASD01910622
#	Creating user name:	WinNT
#	Creation time:	15. 06. 2019 19:56

#	Modifying user name:	WinNT
#	Modification time:	15. 06. 2019 19:56

#	Program:	/corina/corina34_cracker 3.40 0067  02.08.2006

@<TRIPOS>MOLECULE
ASD01910622
  43   46    0    0    0
SMALL
NO_CHARGES


@<TRIPOS>ATOM
   1 C1            -0.5601     2.2066     0.1906 C.ar    
   2 C2            -0.6707     0.8260     0.2490 C.ar    
   3 C3             0.4674     0.0352     0.2828 C.ar    
   4 C4             1.7163     0.6187     0.2581 C.ar    
   5 C5             1.8335     2.0088     0.1989 C.ar    
   6 C6             0.6838     2.8005     0.1654 C.ar    
   7 C7             3.1691     2.6397     0.1721 C.2     
   8 N8             3.4298     3.9341     0.1170 N.2     
   9 C9             4.7683     4.0315     0.1129 C.2     
  10 N10            5.2511     2.8252     0.1644 N.2     
  11 O11            4.3539     2.0101     0.2049 O.3     
  12 C12            5.5673     5.3081     0.0582 C.3     
  13 C13            6.4496     5.4124     1.3043 C.3     
  14 C14            7.2370     6.7241     1.2656 C.3     
  15 C15            8.1423     6.7353     0.0299 C.3     
  16 N16            7.3187     6.4905    -1.1619 N.am    
  17 C17            6.4537     5.3033    -1.1912 C.3     
  18 C18            7.3561     7.3389    -2.2085 C.2     
  19 C19            6.6223     7.0123    -3.4535 C.ar    
  20 O20            7.9915     8.3718    -2.1310 O.2     
  21 F21           -1.8921     0.2491     0.2735 F       
  22 C22            5.9258     8.0002    -4.1570 C.ar    
  23 C23            5.2552     7.6535    -5.3133 C.ar    
  24 N24            5.2653     6.4117    -5.7563 N.ar    
  25 C25            5.9094     5.4486    -5.1241 C.ar    
  26 C26            6.6121     5.7101    -3.9599 C.ar    
  27 F27            5.8871     4.1928    -5.6219 F       
  28 H28           -1.4500     2.8178     0.1604 H       
  29 H29            0.3756    -1.0399     0.3290 H       
  30 H30            2.6023     0.0017     0.2849 H       
  31 H31            0.7689     3.8762     0.1192 H       
  32 H32            4.8890     6.1605     0.0203 H       
  33 H33            5.8228     5.3912     2.1958 H       
  34 H34            7.1440     4.5726     1.3289 H       
  35 H35            6.5433     7.5635     1.2161 H       
  36 H36            7.8474     6.8086     2.1647 H       
  37 H37            8.6307     7.7059    -0.0564 H       
  38 H38            8.8949     5.9521     0.1212 H       
  39 H39            7.0686     4.4033    -1.1995 H       
  40 H40            5.8280     5.3290    -2.0833 H       
  41 H41            5.9122     9.0196    -3.8008 H       
  42 H42            4.7146     8.4103    -5.8624 H       
  43 H43            7.1376     4.9182    -3.4470 H       
@<TRIPOS>BOND
   1    1    2 ar
   2    1    6 ar
   3    1   28 1
   4    2    3 ar
   5    2   21 1
   6    3    4 ar
   7    3   29 1
   8    4    5 ar
   9    4   30 1
  10    5    6 ar
  11    5    7 1
  12    6   31 1
  13    7    8 2
  14    7   11 1
  15    8    9 1
  16    9   10 2
  17    9   12 1
  18   10   11 1
  19   12   13 1
  20   12   17 1
  21   12   32 1
  22   13   14 1
  23   13   33 1
  24   13   34 1
  25   14   15 1
  26   14   35 1
  27   14   36 1
  28   15   16 1
  29   15   37 1
  30   15   38 1
  31   16   17 1
  32   16   18 am
  33   17   39 1
  34   17   40 1
  35   18   19 1
  36   18   20 2
  37   19   22 ar
  38   19   26 ar
  39   22   23 ar
  40   22   41 1
  41   23   24 ar
  42   23   42 1
  43   24   25 ar
  44   25   26 ar
  45   25   27 1
  46   26   43 1

#	End of record

