#	Name: ASD00241007
#	Creating user name:	WinNT
#	Creation time:	15. 06. 2019 18:33

#	Modifying user name:	WinNT
#	Modification time:	15. 06. 2019 18:33

#	Program:	/corina/corina34_cracker 3.40 0067  02.08.2006

@<TRIPOS>MOLECULE
ASD00241007
  51   53    0    0    0
SMALL
NO_CHARGES


@<TRIPOS>ATOM
   1 C1            -0.6744     0.5580     0.2148 C.3     
   2 C2            -0.8871    -0.9679     0.3324 C.3     
   3 C3            -1.5780    -1.1460     1.7025 C.3     
   4 O4            -2.2122     0.1250     1.9641 O.3     
   5 C5            -1.2619     1.1212     1.5277 C.3     
   6 C6            -2.4622    -3.4736     2.1585 C.ar    
   7 C7            -3.6617    -4.1363     1.8492 C.ar    
   8 N8            -1.5197    -4.1247     2.8327 N.ar    
   9 C9            -1.7037    -5.3730     3.2070 C.ar    
  10 N10           -2.8134    -6.0372     2.9391 N.ar    
  11 C11           -3.8113    -5.4687     2.2706 C.ar    
  12 N12           -4.4380    -3.2597     1.1679 N.2     
  13 C13           -3.8066    -2.1286     1.0425 C.2     
  14 N14           -2.5809    -2.2117     1.6333 N.pl3   
  15 C15           -1.9685     2.4530     1.2669 C.3     
  16 N16           -2.5898     2.9294     2.5099 N.3     
  17 C17           -1.5819     3.4846     3.4231 C.3     
  18 C18           -2.2084     3.7345     4.7707 C.2     
  19 C19           -1.6552     3.2427     5.8516 C.2     
  20 O20            0.7182     0.8634     0.1178 O.3     
  21 O21            0.3676    -1.6514     0.3117 O.3     
  22 N22           -4.9705    -6.1726     1.9949 N.pl3   
  23 C23           -4.3484    -0.9088     0.3429 C.3     
  24 C24           -0.3047     2.5788     5.7716 C.3     
  25 N25            0.5983     3.1853     6.7589 N.3     
  26 C26           -3.6437     3.9131     2.2283 C.3     
  27 H27           -1.2120     0.9532    -0.6472 H       
  28 H28           -1.5319    -1.3266    -0.4700 H       
  29 H29           -0.8402    -1.3677     2.4736 H       
  30 H30           -0.4756     1.2472     2.2720 H       
  31 H31           -0.9177    -5.8731     3.7534 H       
  32 H32           -1.2422     3.1876     0.9190 H       
  33 H33           -2.7371     2.3138     0.5067 H       
  34 H34           -0.7597     2.7770     3.5303 H       
  35 H35           -1.2031     4.4232     3.0188 H       
  36 H36           -3.1134     4.3191     4.8454 H       
  37 H37           -2.1671     3.3130     6.8000 H       
  38 H38            1.1513     0.4823    -0.6583 H       
  39 H39            0.8717    -1.5238    -0.5036 H       
  40 H40           -5.0615    -7.0920     2.2904 H       
  41 H41           -5.6919    -5.7466     1.5062 H       
  42 H42           -4.8870    -0.2884     1.0592 H       
  43 H43           -3.5235    -0.3382    -0.0838 H       
  44 H44           -5.0266    -1.2174    -0.4526 H       
  45 H45           -0.4101     1.5144     5.9812 H       
  46 H46            0.1075     2.7132     4.7715 H       
  47 H47            1.5112     2.7569     6.7251 H       
  48 H48            0.6620     4.1834     6.6256 H       
  49 H49           -4.3596     3.4874     1.5251 H       
  50 H50           -4.1553     4.1729     3.1550 H       
  51 H51           -3.1984     4.8090     1.7956 H       
@<TRIPOS>BOND
   1    1    2 1
   2    1   20 1
   3    1    5 1
   4    1   27 1
   5    2    3 1
   6    2   21 1
   7    2   28 1
   8    3    4 1
   9    3   14 1
  10    3   29 1
  11    4    5 1
  12    5   15 1
  13    5   30 1
  14    6    7 ar
  15    6    8 ar
  16    6   14 1
  17    7   12 1
  18    7   11 ar
  19    8    9 ar
  20    9   10 ar
  21    9   31 1
  22   10   11 ar
  23   11   22 1
  24   12   13 2
  25   13   14 1
  26   13   23 1
  27   15   16 1
  28   15   32 1
  29   15   33 1
  30   16   17 1
  31   16   26 1
  32   17   18 1
  33   17   34 1
  34   17   35 1
  35   18   19 2
  36   18   36 1
  37   19   24 1
  38   19   37 1
  39   20   38 1
  40   21   39 1
  41   22   40 1
  42   22   41 1
  43   23   42 1
  44   23   43 1
  45   23   44 1
  46   24   25 1
  47   24   45 1
  48   24   46 1
  49   25   47 1
  50   25   48 1
  51   26   49 1
  52   26   50 1
  53   26   51 1

#	End of record

