#	Name: ASD01912382
#	Creating user name:	WinNT
#	Creation time:	15. 06. 2019 19:59

#	Modifying user name:	WinNT
#	Modification time:	15. 06. 2019 19:59

#	Program:	/corina/corina34_cracker 3.40 0067  02.08.2006

@<TRIPOS>MOLECULE
ASD01912382
  40   42    0    0    0
SMALL
NO_CHARGES


@<TRIPOS>ATOM
   1 C1             0.4212     2.0386    -1.7117 C.ar    
   2 C2             0.3744     0.6801    -1.4649 C.ar    
   3 C3             1.5779    -0.0305    -1.3514 C.ar    
   4 C4             2.7799     0.6780    -1.4951 C.ar    
   5 C5             2.7316     2.0332    -1.7400 C.ar    
   6 N6             1.5766     2.6647    -1.8399 N.ar    
   7 C7             1.5798    -1.4395    -1.0956 C.1     
   8 C8             1.5813    -2.5946    -0.8859 C.1     
   9 C9             1.5832    -4.0036    -0.6301 C.2     
  10 N10            5.0235    -6.1294    -1.2138 N.3     
  11 C11            3.7190    -6.8011    -1.2674 C.3     
  12 C12            2.7691    -6.1499    -0.2557 C.3     
  13 C13            2.7377    -4.6601    -0.5258 C.2     
  14 C14            4.0626    -3.9417    -0.6738 C.3     
  15 C15            4.9303    -4.7333    -1.6589 C.3     
  16 C16            5.9730    -6.8255    -1.9529 C.ar    
  17 C17            7.2887    -6.8843    -1.5041 C.ar    
  18 C18            8.2229    -7.5807    -2.2490 C.ar    
  19 C19            7.8087    -8.1974    -3.4225 C.ar    
  20 C20            6.4872    -8.0983    -3.8083 C.ar    
  21 N21            5.6161    -7.4312    -3.0748 N.ar    
  22 N22            7.6498    -6.2674    -0.3530 N.pl3   
  23 O23            8.8213    -6.2348    -0.0211 O.2     
  24 O24            6.8030    -5.7453     0.3498 O.2     
  25 Cl25          -1.0590     2.9331    -1.8625 Cl      
  26 Br26          -1.2858    -0.2067    -1.2826 Br      
  27 H27            3.7291     0.1692    -1.4145 H       
  28 H28            3.6521     2.5869    -1.8517 H       
  29 H29            0.6486    -4.5340    -0.5218 H       
  30 H30            3.3024    -6.7068    -2.2702 H       
  31 H31            3.8430    -7.8561    -1.0227 H       
  32 H32            1.7681    -6.5655    -0.3710 H       
  33 H33            3.1290    -6.3324     0.7569 H       
  34 H34            3.8943    -2.9358    -1.0583 H       
  35 H35            4.5613    -3.8873     0.2939 H       
  36 H36            5.9282    -4.2964    -1.6967 H       
  37 H37            4.4796    -4.6972    -2.6507 H       
  38 H38            9.2514    -7.6433    -1.9257 H       
  39 H39            8.5136    -8.7486    -4.0271 H       
  40 H40            6.1609    -8.5760    -4.7202 H       
@<TRIPOS>BOND
   1    1    2 ar
   2    1    6 ar
   3    1   25 1
   4    2    3 ar
   5    2   26 1
   6    3    4 ar
   7    3    7 1
   8    4    5 ar
   9    4   27 1
  10    5    6 ar
  11    5   28 1
  12    7    8 3
  13    8    9 1
  14    9   13 2
  15    9   29 1
  16   10   11 1
  17   10   15 1
  18   10   16 1
  19   11   12 1
  20   11   30 1
  21   11   31 1
  22   12   13 1
  23   12   32 1
  24   12   33 1
  25   13   14 1
  26   14   15 1
  27   14   34 1
  28   14   35 1
  29   15   36 1
  30   15   37 1
  31   16   17 ar
  32   16   21 ar
  33   17   18 ar
  34   17   22 1
  35   18   19 ar
  36   18   38 1
  37   19   20 ar
  38   19   39 1
  39   20   21 ar
  40   20   40 1
  41   22   23 2
  42   22   24 2

#	End of record

