#	Name: ASD03330222
#	Creating user name:	WinNT
#	Creation time:	15. 06. 2019 20:36

#	Modifying user name:	WinNT
#	Modification time:	15. 06. 2019 20:36

#	Program:	/corina/corina34_cracker 3.40 0067  02.08.2006

@<TRIPOS>MOLECULE
ASD03330222
  54   56    0    0    0
SMALL
NO_CHARGES


@<TRIPOS>ATOM
   1 C1             0.4765     1.8349    -0.0962 C.3     
   2 N2             0.2306     0.3860    -0.0893 N.3     
   3 C3             0.6935    -0.2393    -1.3414 C.3     
   4 C4             2.1049     0.2221    -1.5974 C.2     
   5 N5             2.6781     1.2876    -0.9666 N.pl3   
   6 C6             1.9811     2.1079     0.0279 C.3     
   7 C7             3.0323    -0.2875    -2.4455 C.2     
   8 N8             4.1535     0.4600    -2.3258 N.2     
   9 C9             3.9467     1.4071    -1.4381 C.2     
  10 C10            4.9298     2.4314    -1.0228 C.ar    
  11 C11            5.6678     3.1252    -1.9836 C.ar    
  12 C12            6.5837     4.0807    -1.5885 C.ar    
  13 C13            6.7698     4.3501    -0.2450 C.ar    
  14 C14            6.0411     3.6656     0.7118 C.ar    
  15 C15            5.1194     2.7126     0.3306 C.ar    
  16 C16            2.8513    -1.4468    -3.3370 C.2     
  17 O17            1.7900    -2.0405    -3.3547 O.2     
  18 O18            6.0401    -2.9909    -5.1152 O.2     
  19 C19            5.0234    -3.6207    -5.3167 C.2     
  20 C20            3.6821    -3.0017    -5.0191 C.3     
  21 N21            3.8619    -1.8492    -4.1328 N.am    
  22 C22            3.0306    -2.5436    -6.3255 C.3     
  23 C23            2.8878    -3.7384    -7.2705 C.3     
  24 C24            1.6478    -1.9601    -6.0286 C.3     
  25 C25            3.9048    -1.4744    -6.9838 C.3     
  26 N26            5.0933    -4.8743    -5.8069 N.am    
  27 C27            6.3916    -5.4474    -6.1703 C.3     
  28 Cl28           5.4354     2.7874    -3.6705 Cl      
  29 H29            0.1068     2.2606    -1.0290 H       
  30 H30           -0.0456     2.2949     0.7428 H       
  31 H31            0.6603    -0.0498     0.7129 H       
  32 H32            0.6729    -1.3244    -1.2410 H       
  33 H33            0.0502     0.0674    -2.1662 H       
  34 H34            2.1803     3.1629    -0.1607 H       
  35 H35            2.3220     1.8417     1.0284 H       
  36 H36            7.1558     4.6182    -2.3303 H       
  37 H37            7.4874     5.0979     0.0590 H       
  38 H38            6.1914     3.8809     1.7594 H       
  39 H39            4.5513     2.1796     1.0787 H       
  40 H40            3.0421    -3.7378    -4.5326 H       
  41 H41            4.7084    -1.3757    -4.1187 H       
  42 H42            2.2261    -4.4794    -6.8220 H       
  43 H43            2.4681    -3.4033    -8.2190 H       
  44 H44            3.8675    -4.1837    -7.4438 H       
  45 H45            1.7495    -1.1089    -5.3554 H       
  46 H46            1.1837    -1.6338    -6.9593 H       
  47 H47            1.0250    -2.7219    -5.5597 H       
  48 H48            4.8899    -1.8901    -7.1953 H       
  49 H49            3.4407    -1.1480    -7.9145 H       
  50 H50            4.0065    -0.6232    -6.3106 H       
  51 H51            4.2839    -5.3970    -5.9190 H       
  52 H52            7.0367    -5.4717    -5.2920 H       
  53 H53            6.2493    -6.4611    -6.5448 H       
  54 H54            6.8549    -4.8357    -6.9445 H       
@<TRIPOS>BOND
   1    1    2 1
   2    1    6 1
   3    1   29 1
   4    1   30 1
   5    2    3 1
   6    2   31 1
   7    3    4 1
   8    3   32 1
   9    3   33 1
  10    4    5 1
  11    4    7 2
  12    5    6 1
  13    5    9 1
  14    6   34 1
  15    6   35 1
  16    7    8 1
  17    7   16 1
  18    8    9 2
  19    9   10 1
  20   10   11 ar
  21   10   15 ar
  22   11   12 ar
  23   11   28 1
  24   12   13 ar
  25   12   36 1
  26   13   14 ar
  27   13   37 1
  28   14   15 ar
  29   14   38 1
  30   15   39 1
  31   16   17 2
  32   16   21 am
  33   18   19 2
  34   19   26 am
  35   19   20 1
  36   20   21 1
  37   20   22 1
  38   20   40 1
  39   21   41 1
  40   22   23 1
  41   22   24 1
  42   22   25 1
  43   23   42 1
  44   23   43 1
  45   23   44 1
  46   24   45 1
  47   24   46 1
  48   24   47 1
  49   25   48 1
  50   25   49 1
  51   25   50 1
  52   26   27 1
  53   26   51 1
  54   27   52 1
  55   27   53 1
  56   27   54 1

#	End of record

