#	Name: ASD01940680
#	Creating user name:	WinNT
#	Creation time:	15. 06. 2019 20:13

#	Modifying user name:	WinNT
#	Modification time:	15. 06. 2019 20:13

#	Program:	/corina/corina34_cracker 3.40 0067  02.08.2006

@<TRIPOS>MOLECULE
ASD01940680
  40   42    0    0    0
SMALL
NO_CHARGES


@<TRIPOS>ATOM
   1 C1             0.3573     0.9675     1.2045 C.ar    
   2 C2            -0.1454     0.2345     0.1452 C.ar    
   3 C3             0.6230     0.0331    -0.9887 C.ar    
   4 C4             1.9000     0.5654    -1.0671 C.ar    
   5 C5             2.4099     1.3027    -0.0066 C.ar    
   6 C6             1.6342     1.5041     1.1340 C.ar    
   7 N7             2.1434     2.2476     2.2069 N.am    
   8 S8             1.7618     1.8252     3.7620 S.o2    
   9 C9             2.3890     0.1322     3.9381 C.3     
  10 O10            2.5170     2.7226     4.5643 O.2     
  11 O11            0.3411     1.8361     3.7896 O.2     
  12 F12            0.1271    -0.6842    -2.0205 F       
  13 F13            2.6485     0.3669    -2.1741 F       
  14 N14            3.7013     1.8421    -0.0824 N.pl3   
  15 C15            4.8074     1.0514     0.2325 C.ar    
  16 C16            6.0770     1.6204     0.2809 C.ar    
  17 C17            4.6386    -0.3017     0.5029 C.ar    
  18 C18            5.7290    -1.0852     0.8146 C.ar    
  19 C19            7.0042    -0.5192     0.8585 C.ar    
  20 C20            7.1710     0.8414     0.5917 C.ar    
  21 Cl21           6.2827     3.3119    -0.0510 Cl      
  22 C22            8.1745    -1.3568     1.1924 C.2     
  23 C23            2.0870    -0.6005     5.2469 C.3     
  24 C24            1.3629    -1.0025     3.9604 C.3     
  25 C25            9.3856    -0.8178     1.2337 C.2     
  26 H26           -0.2466     1.1259     2.0857 H       
  27 H27           -1.1401    -0.1823     0.2027 H       
  28 H28            2.7194     3.0097     2.0388 H       
  29 H29            3.3484    -0.0658     3.4602 H       
  30 H30            3.8263     2.7650    -0.3537 H       
  31 H31            3.6519    -0.7396     0.4690 H       
  32 H32            5.5967    -2.1362     1.0252 H       
  33 H33            8.1565     1.2820     0.6249 H       
  34 H34            8.0439    -2.4080     1.4029 H       
  35 H35            2.8477    -1.2808     5.6298 H       
  36 H36            1.5116    -0.0652     6.0021 H       
  37 H37            0.3110    -0.7317     3.8694 H       
  38 H38            1.6471    -1.9473     3.4971 H       
  39 H39            9.5163     0.2334     1.0232 H       
  40 H40           10.2411    -1.4300     1.4778 H       
@<TRIPOS>BOND
   1    1    2 ar
   2    1    6 ar
   3    1   26 1
   4    2    3 ar
   5    2   27 1
   6    3    4 ar
   7    3   12 1
   8    4    5 ar
   9    4   13 1
  10    5    6 ar
  11    5   14 1
  12    6    7 1
  13    7    8 am
  14    7   28 1
  15    8    9 1
  16    8   10 2
  17    8   11 2
  18    9   23 1
  19    9   24 1
  20    9   29 1
  21   14   15 1
  22   14   30 1
  23   15   16 ar
  24   15   17 ar
  25   16   21 1
  26   16   20 ar
  27   17   18 ar
  28   17   31 1
  29   18   19 ar
  30   18   32 1
  31   19   20 ar
  32   19   22 1
  33   20   33 1
  34   22   25 2
  35   22   34 1
  36   23   24 1
  37   23   35 1
  38   23   36 1
  39   24   37 1
  40   24   38 1
  41   25   39 1
  42   25   40 1

#	End of record

