#	Name: ASD05503028
#	Creating user name:	WinNT
#	Creation time:	15. 06. 2019 21:01

#	Modifying user name:	WinNT
#	Modification time:	15. 06. 2019 21:01

#	Program:	/corina/corina34_cracker 3.40 0067  02.08.2006

@<TRIPOS>MOLECULE
ASD05503028
  38   39    0    0    0
SMALL
NO_CHARGES


@<TRIPOS>ATOM
   1 C1            -0.1509     1.3615     0.4421 C.ar    
   2 C2            -0.0932    -0.0174     0.2851 C.ar    
   3 C3             1.1371    -0.6542     0.2043 C.ar    
   4 C4             2.3060     0.0893     0.2806 C.ar    
   5 C5             2.2414     1.4685     0.4376 C.ar    
   6 C6             1.0151     2.0992     0.5177 C.ar    
   7 N7            -1.2744    -0.7637     0.2090 N.am    
   8 C8            -1.3342    -1.8517    -0.5841 C.2     
   9 C9            -2.5630    -2.7241    -0.5752 C.3     
  10 O10           -0.3990    -2.1288    -1.3050 O.2     
  11 C11           -2.3736    -3.8819    -1.5572 C.3     
  12 C12           -3.6212    -4.7676    -1.5482 C.3     
  13 N13            3.5479    -0.5486     0.2000 N.am    
  14 C14            4.5809     0.0625    -0.4131 C.2     
  15 C15            5.8629    -0.6517    -0.5895 C.ar    
  16 O16            4.4582     1.2011    -0.8210 O.2     
  17 C17            6.0166    -1.9587    -0.1258 C.ar    
  18 N18            7.1589    -2.5949    -0.2825 N.ar    
  19 C19            8.1938    -2.0326    -0.8769 C.ar    
  20 C20            8.1219    -0.7399    -1.3646 C.ar    
  21 C21            6.9420    -0.0300    -1.2299 C.ar    
  22 H22           -1.1082     1.8582     0.5005 H       
  23 H23            1.1846    -1.7262     0.0826 H       
  24 H24            3.1509     2.0479     0.4971 H       
  25 H25            0.9675     3.1712     0.6401 H       
  26 H26           -2.0502    -0.4979     0.7271 H       
  27 H27           -2.7199    -3.1205     0.4280 H       
  28 H28           -3.4298    -2.1338    -0.8722 H       
  29 H29           -2.2167    -3.4855    -2.5604 H       
  30 H30           -1.5068    -4.4722    -1.2602 H       
  31 H31           -3.7781    -5.1640    -0.5450 H       
  32 H32           -4.4880    -4.1772    -1.8452 H       
  33 H33           -3.4863    -5.5924    -2.2478 H       
  34 H34            3.6658    -1.4309     0.5854 H       
  35 H35            5.1917    -2.4527     0.3661 H       
  36 H36            9.1124    -2.5904    -0.9841 H       
  37 H37            8.9764    -0.2911    -1.8492 H       
  38 H38            6.8581     0.9806    -1.6015 H       
@<TRIPOS>BOND
   1    1    2 ar
   2    1    6 ar
   3    1   22 1
   4    2    3 ar
   5    2    7 1
   6    3    4 ar
   7    3   23 1
   8    4    5 ar
   9    4   13 1
  10    5    6 ar
  11    5   24 1
  12    6   25 1
  13    7    8 am
  14    7   26 1
  15    8    9 1
  16    8   10 2
  17    9   11 1
  18    9   27 1
  19    9   28 1
  20   11   12 1
  21   11   29 1
  22   11   30 1
  23   12   31 1
  24   12   32 1
  25   12   33 1
  26   13   14 am
  27   13   34 1
  28   14   15 1
  29   14   16 2
  30   15   17 ar
  31   15   21 ar
  32   17   18 ar
  33   17   35 1
  34   18   19 ar
  35   19   20 ar
  36   19   36 1
  37   20   21 ar
  38   20   37 1
  39   21   38 1

#	End of record

