#	Name: ASD05130027
#	Creating user name:	WinNT
#	Creation time:	15. 06. 2019 20:56

#	Modifying user name:	WinNT
#	Modification time:	15. 06. 2019 20:56

#	Program:	/corina/corina34_cracker 3.40 0067  02.08.2006

@<TRIPOS>MOLECULE
ASD05130027
  54   57    0    0    0
SMALL
NO_CHARGES


@<TRIPOS>ATOM
   1 N1            -0.0588     1.4056    -0.0050 N.am    
   2 C2             0.0128     0.2105     0.6139 C.2     
   3 O3             1.0795    -0.1928     1.0358 O.2     
   4 N4            -1.0980    -0.5377     0.7651 N.am    
   5 C5            -1.0083    -1.8198     1.3219 C.ar    
   6 C6            -1.8442    -2.8349     0.8709 C.ar    
   7 C7            -1.7522    -4.1010     1.4242 C.ar    
   8 C8            -0.8287    -4.3539     2.4250 C.ar    
   9 C9             0.0021    -3.3445     2.8737 C.ar    
  10 C10           -0.0809    -2.0807     2.3210 C.ar    
  11 F11           -2.5636    -5.0893     0.9882 F       
  12 F12           -2.7448    -2.5866    -0.1050 F       
  13 C13            1.0782     2.2204    -0.0889 C.ar    
  14 C14            0.9383     3.5994    -0.2137 C.ar    
  15 C15            2.0585     4.4073    -0.2968 C.ar    
  16 C16            3.3217     3.8490    -0.2559 C.ar    
  17 C17            3.4700     2.4672    -0.1304 C.ar    
  18 C18            2.3412     1.6538    -0.0418 C.ar    
  19 F19           -0.2945     4.1507    -0.2543 F       
  20 N20            6.8710     1.4303     1.1659 N.am    
  21 C21            5.6402     1.9771     1.1246 C.2     
  22 C22            4.8237     1.8664    -0.0863 C.2     
  23 C23            5.3190     1.2042    -1.1764 C.2     
  24 C24            6.6145     0.6390    -1.1086 C.ar    
  25 C25            7.1611    -0.0468    -2.2003 C.ar    
  26 N26            8.3667    -0.5662    -2.1208 N.ar    
  27 C27            9.1094    -0.4671    -1.0234 C.ar    
  28 C28            8.6447     0.1954     0.1039 C.ar    
  29 C29            7.3765     0.7632     0.0738 C.ar    
  30 O30            5.2045     2.5651     2.0985 O.2     
  31 N31           10.3738    -1.0376    -1.0041 N.pl3   
  32 C32           11.2046    -0.9368     0.1983 C.3     
  33 C33            7.6801     1.5527     2.3810 C.3     
  34 C34            7.3984     0.3647     3.3031 C.3     
  35 Cl35           4.7243     4.8665    -0.3611 Cl      
  36 H36           -0.8963     1.7000    -0.3958 H       
  37 H37           -1.9595    -0.1883     0.4883 H       
  38 H38           -0.7578    -5.3417     2.8558 H       
  39 H39            0.7209    -3.5451     3.6545 H       
  40 H40            0.5728    -1.2949     2.6696 H       
  41 H41            1.9452     5.4769    -0.3943 H       
  42 H42            2.4513     0.5842     0.0595 H       
  43 H43            4.7289     1.1139    -2.0764 H       
  44 H44            6.5901    -0.1498    -3.1112 H       
  45 H45            9.2582     0.2685     0.9897 H       
  46 H46           10.7078    -1.5031    -1.7868 H       
  47 H47           12.1558    -1.4405     0.0261 H       
  48 H48           11.3859     0.1133     0.4277 H       
  49 H49           10.6903    -1.4081     1.0359 H       
  50 H50            8.7370     1.5630     2.1144 H       
  51 H51            7.4260     2.4798     2.8949 H       
  52 H52            7.6525    -0.5623     2.7892 H       
  53 H53            8.0004     0.4558     4.2072 H       
  54 H54            6.3416     0.3544     3.5698 H       
@<TRIPOS>BOND
   1    1    2 am
   2    1   13 1
   3    1   36 1
   4    2    3 2
   5    2    4 am
   6    4    5 1
   7    4   37 1
   8    5    6 ar
   9    5   10 ar
  10    6    7 ar
  11    6   12 1
  12    7    8 ar
  13    7   11 1
  14    8    9 ar
  15    8   38 1
  16    9   10 ar
  17    9   39 1
  18   10   40 1
  19   13   14 ar
  20   13   18 ar
  21   14   15 ar
  22   14   19 1
  23   15   16 ar
  24   15   41 1
  25   16   17 ar
  26   16   35 1
  27   17   18 ar
  28   17   22 1
  29   18   42 1
  30   20   21 am
  31   20   29 1
  32   20   33 1
  33   21   22 1
  34   21   30 2
  35   22   23 2
  36   23   24 1
  37   23   43 1
  38   24   25 ar
  39   24   29 ar
  40   25   26 ar
  41   25   44 1
  42   26   27 ar
  43   27   28 ar
  44   27   31 1
  45   28   29 ar
  46   28   45 1
  47   31   32 1
  48   31   46 1
  49   32   47 1
  50   32   48 1
  51   32   49 1
  52   33   34 1
  53   33   50 1
  54   33   51 1
  55   34   52 1
  56   34   53 1
  57   34   54 1

#	End of record

