#	Name: ASD01900240
#	Creating user name:	WinNT
#	Creation time:	15. 06. 2019 19:51

#	Modifying user name:	WinNT
#	Modification time:	15. 06. 2019 19:51

#	Program:	/corina/corina34_cracker 3.40 0067  02.08.2006

@<TRIPOS>MOLECULE
ASD01900240
  61   65    0    0    0
SMALL
NO_CHARGES


@<TRIPOS>ATOM
   1 C1            -0.9173     1.5096     0.3586 C.ar    
   2 C2            -0.9186     0.1306     0.3625 C.ar    
   3 C3             0.2743    -0.5741     0.2917 C.ar    
   4 C4             1.4826     0.0948     0.2238 C.ar    
   5 C5             1.5009     1.4788     0.2252 C.ar    
   6 C6             0.2925     2.1961     0.2821 C.ar    
   7 N7             2.6916     2.1954     0.1781 N.pl3   
   8 C8             2.6903     3.5307    -0.4301 C.3     
   9 N9             1.5154     4.2858     0.0067 N.am    
  10 C10            0.3465     3.6680     0.2686 C.2     
  11 C11            3.9601     4.2778    -0.0115 C.3     
  12 C12            2.6703     3.3921    -1.9550 C.3     
  13 C13            2.7381     4.7836    -2.5887 C.3     
  14 N14            3.9673     5.4605    -2.1565 N.3     
  15 C15            3.9896     5.6445    -0.6998 C.3     
  16 C16            1.6073     5.6753     0.1556 C.ar    
  17 C17            1.0826     6.5146    -0.8183 C.ar    
  18 C18            1.1732     7.8845    -0.6705 C.ar    
  19 C19            1.7883     8.4224     0.4505 C.ar    
  20 C20            2.3131     7.5846     1.4237 C.ar    
  21 C21            2.2182     6.2145     1.2801 C.ar    
  22 C22            2.4209    10.2576     1.8242 C.3     
  23 O23            1.8771     9.7714     0.5954 O.3     
  24 C24            4.1340     6.7437    -2.8518 C.3     
  25 C25            5.3650     7.4405    -2.3320 C.ar    
  26 C26            5.3033     8.7736    -1.9707 C.ar    
  27 C27            6.4331     9.4141    -1.4933 C.ar    
  28 C28            7.6268     8.7174    -1.3779 C.ar    
  29 C29            7.6853     7.3833    -1.7404 C.ar    
  30 C30            6.5532     6.7447    -2.2117 C.ar    
  31 F31            8.7313     9.3408    -0.9125 F       
  32 F32            6.3737    10.7168    -1.1405 F       
  33 O33           -0.6554     4.3205     0.4917 O.2     
  34 Br34           0.2477    -2.4649     0.2888 Br      
  35 F35            3.7564     9.8557     1.9345 F       
  36 F36            2.3511    11.6547     1.8447 F       
  37 F37            1.6876     9.7383     2.8965 F       
  38 C38            4.2852     6.4941    -4.3537 C.3     
  39 H39           -1.8486     2.0539     0.4099 H       
  40 H40           -1.8549    -0.4045     0.4214 H       
  41 H41            2.4077    -0.4600     0.1703 H       
  42 H42            3.5088     1.8190     0.5406 H       
  43 H43            3.9625     4.4145     1.0698 H       
  44 H44            4.8363     3.7015    -0.3085 H       
  45 H45            3.5283     2.8027    -2.2783 H       
  46 H46            1.7500     2.8961    -2.2634 H       
  47 H47            2.7385     4.6885    -3.6745 H       
  48 H48            1.8726     5.3677    -2.2758 H       
  49 H49            3.1189     6.2243    -0.3936 H       
  50 H50            4.8979     6.1753    -0.4146 H       
  51 H51            0.6040     6.0960    -1.6913 H       
  52 H52            0.7654     8.5374    -1.4281 H       
  53 H53            2.7922     8.0041     2.2960 H       
  54 H54            2.6227     5.5624     2.0401 H       
  55 H55            3.2597     7.3697    -2.6737 H       
  56 H56            4.3732     9.3151    -2.0613 H       
  57 H57            8.6143     6.8398    -1.6513 H       
  58 H58            6.5984     5.7023    -2.4903 H       
  59 H59            3.3948     5.9901    -4.7297 H       
  60 H60            4.4089     7.4463    -4.8696 H       
  61 H61            5.1595     5.8681    -4.5318 H       
@<TRIPOS>BOND
   1    1    2 ar
   2    1    6 ar
   3    1   39 1
   4    2    3 ar
   5    2   40 1
   6    3    4 ar
   7    3   34 1
   8    4    5 ar
   9    4   41 1
  10    5    7 1
  11    5    6 ar
  12    6   10 1
  13    7    8 1
  14    7   42 1
  15    8    9 1
  16    8   12 1
  17    8   11 1
  18    9   10 am
  19    9   16 1
  20   10   33 2
  21   11   15 1
  22   11   43 1
  23   11   44 1
  24   12   13 1
  25   12   45 1
  26   12   46 1
  27   13   14 1
  28   13   47 1
  29   13   48 1
  30   14   15 1
  31   14   24 1
  32   15   49 1
  33   15   50 1
  34   16   17 ar
  35   16   21 ar
  36   17   18 ar
  37   17   51 1
  38   18   19 ar
  39   18   52 1
  40   19   20 ar
  41   19   23 1
  42   20   21 ar
  43   20   53 1
  44   21   54 1
  45   22   23 1
  46   22   35 1
  47   22   36 1
  48   22   37 1
  49   24   25 1
  50   24   38 1
  51   24   55 1
  52   25   26 ar
  53   25   30 ar
  54   26   27 ar
  55   26   56 1
  56   27   28 ar
  57   27   32 1
  58   28   29 ar
  59   28   31 1
  60   29   30 ar
  61   29   57 1
  62   30   58 1
  63   38   59 1
  64   38   60 1
  65   38   61 1

#	End of record

