#	Name: ASD01883329
#	Creating user name:	WinNT
#	Creation time:	15. 06. 2019 19:46

#	Modifying user name:	WinNT
#	Modification time:	15. 06. 2019 19:46

#	Program:	/corina/corina34_cracker 3.40 0067  02.08.2006

@<TRIPOS>MOLECULE
ASD01883329
  46   47    0    0    0
SMALL
NO_CHARGES


@<TRIPOS>ATOM
   1 N1            -0.0162     1.3419     0.0115 N.am    
   2 C2            -0.0003    -0.0006    -0.0854 C.2     
   3 C3            -1.2183    -0.7226    -0.0812 C.2     
   4 C4            -2.4225    -0.0124     0.0251 C.2     
   5 C5            -2.3754     1.3878     0.1233 C.2     
   6 C6            -1.1834     2.0265     0.1199 C.2     
   7 O7             1.0610    -0.5939    -0.1771 O.2     
   8 C8            -1.2203    -2.1509    -0.1839 C.1     
   9 N9            -1.2218    -3.2840    -0.2654 N.1     
  10 O10           -3.6076    -0.6636     0.0325 O.3     
  11 C11           -4.3747    -0.6012     1.2366 C.3     
  12 C12            1.2506     2.0777     0.0060 C.3     
  13 C13            1.6256     2.4369    -1.4332 C.3     
  14 C14            2.9486     3.2053    -1.4390 C.3     
  15 C15            3.3866     3.4557    -2.8834 C.3     
  16 C16            2.7636     4.5445    -0.7226 C.3     
  17 C17           -5.6532    -1.3788     1.0585 C.ar    
  18 C18           -5.6926    -2.7234     1.3760 C.ar    
  19 C19           -6.8637    -3.4397     1.2144 C.ar    
  20 C20           -8.0004    -2.8089     0.7333 C.ar    
  21 C21           -7.9594    -1.4571     0.4146 C.ar    
  22 C22           -6.7864    -0.7443     0.5832 C.ar    
  23 O23           -9.1532    -3.5117     0.5732 O.3     
  24 C24           -9.1217    -4.8975     0.9206 C.3     
  25 F25           -9.0651    -0.8389    -0.0549 F       
  26 H26           -3.2912     1.9543     0.2057 H       
  27 H27           -1.1600     3.1036     0.1963 H       
  28 H28           -3.7993    -1.0308     2.0566 H       
  29 H29           -4.6104     0.4385     1.4637 H       
  30 H30            1.1432     2.9904     0.5921 H       
  31 H31            2.0335     1.4565     0.4412 H       
  32 H32            1.7330     1.5241    -2.0192 H       
  33 H33            0.8427     3.0580    -1.8684 H       
  34 H34            3.7108     2.6203    -0.9244 H       
  35 H35            2.6244     4.0408    -3.3979 H       
  36 H36            4.3291     4.0032    -2.8875 H       
  37 H37            3.5184     2.5016    -3.3937 H       
  38 H38            2.4515     4.3661     0.3064 H       
  39 H39            3.7061     5.0920    -0.7267 H       
  40 H40            2.0013     5.1296    -1.2372 H       
  41 H41           -4.8070    -3.2152     1.7505 H       
  42 H42           -6.8930    -4.4904     1.4625 H       
  43 H43           -6.7531     0.3066     0.3362 H       
  44 H44          -10.1032    -5.3383     0.7458 H       
  45 H45           -8.3794    -5.4089     0.3078 H       
  46 H46           -8.8586    -5.0023     1.9732 H       
@<TRIPOS>BOND
   1    1    2 am
   2    1   12 1
   3    1    6 1
   4    2    3 1
   5    2    7 2
   6    3    4 2
   7    3    8 1
   8    4    5 1
   9    4   10 1
  10    5    6 2
  11    5   26 1
  12    6   27 1
  13    8    9 3
  14   10   11 1
  15   11   17 1
  16   11   28 1
  17   11   29 1
  18   12   13 1
  19   12   30 1
  20   12   31 1
  21   13   14 1
  22   13   32 1
  23   13   33 1
  24   14   15 1
  25   14   16 1
  26   14   34 1
  27   15   35 1
  28   15   36 1
  29   15   37 1
  30   16   38 1
  31   16   39 1
  32   16   40 1
  33   17   18 ar
  34   17   22 ar
  35   18   19 ar
  36   18   41 1
  37   19   20 ar
  38   19   42 1
  39   20   21 ar
  40   20   23 1
  41   21   22 ar
  42   21   25 1
  43   22   43 1
  44   23   24 1
  45   24   44 1
  46   24   45 1
  47   24   46 1

#	End of record

