#	Name: ASD01910513
#	Creating user name:	WinNT
#	Creation time:	15. 06. 2019 19:56

#	Modifying user name:	WinNT
#	Modification time:	15. 06. 2019 19:56

#	Program:	/corina/corina34_cracker 3.40 0067  02.08.2006

@<TRIPOS>MOLECULE
ASD01910513
  48   52    0    0    0
SMALL
NO_CHARGES


@<TRIPOS>ATOM
   1 O1            -0.0378     3.0422     0.7505 O.3     
   2 C2            -0.3453     1.7428     0.6034 C.2     
   3 N3             0.7970     1.1045     0.4025 N.2     
   4 C4             1.7476     2.0500     0.4373 C.2     
   5 N5             1.1617     3.1914     0.6516 N.2     
   6 C6            -1.6887     1.1457     0.6560 C.2     
   7 C7            -2.8454     1.8271     0.8645 C.2     
   8 C8            -3.9080     0.8903     0.8428 C.ar    
   9 C9            -3.3346    -0.3752     0.6128 C.ar    
  10 N10           -1.9750    -0.1949     0.4956 N.pl3   
  11 C11            3.9682     2.2939     1.5182 C.3     
  12 C12            3.2278     1.8296     0.2600 C.3     
  13 C13            3.7232     2.6335    -0.9444 C.3     
  14 C14            5.2199     2.3847    -1.1451 C.3     
  15 C15            5.9828     2.8552     0.0972 C.3     
  16 N16            5.4145     2.1940     1.2798 N.am    
  17 C17            6.2048     1.5086     2.1295 C.2     
  18 C18            5.6421     0.9539     3.3758 C.ar    
  19 O19            7.3815     1.3472     1.8692 O.2     
  20 C20            4.8551     1.7544     4.2073 C.ar    
  21 C21            4.3317     1.2313     5.3695 C.ar    
  22 C22            4.5840    -0.0878     5.7164 C.ar    
  23 C23            5.3634    -0.8887     4.8977 C.ar    
  24 C24            5.8897    -0.3779     3.7269 C.ar    
  25 F25            4.0678    -0.5936     6.8579 F       
  26 C26           -5.2953     1.0053     0.9970 C.ar    
  27 C27           -6.0811    -0.1081     0.9236 C.ar    
  28 C28           -5.5179    -1.3575     0.6973 C.ar    
  29 C29           -4.1564    -1.4959     0.5419 C.ar    
  30 F30            6.6494    -1.1590     2.9282 F       
  31 H31           -2.9382     2.8919     1.0191 H       
  32 H32           -1.3243    -0.8958     0.3336 H       
  33 H33            3.7044     3.3287     1.7365 H       
  34 H34            3.6919     1.6589     2.3600 H       
  35 H35            3.4211     0.7698     0.0944 H       
  36 H36            3.1804     2.3222    -1.8369 H       
  37 H37            3.5522     3.6954    -0.7674 H       
  38 H38            5.3944     1.3196    -1.2975 H       
  39 H39            5.5671     2.9391    -2.0170 H       
  40 H40            7.0359     2.5906     0.0013 H       
  41 H41            5.8833     3.9358     0.1996 H       
  42 H42            4.6575     2.7818     3.9396 H       
  43 H43            3.7236     1.8503     6.0125 H       
  44 H44            5.5568    -1.9150     5.1731 H       
  45 H45           -5.7420     1.9726     1.1740 H       
  46 H46           -7.1506    -0.0170     1.0428 H       
  47 H47           -6.1537    -2.2287     0.6426 H       
  48 H48           -3.7278    -2.4715     0.3660 H       
@<TRIPOS>BOND
   1    1    2 1
   2    1    5 1
   3    2    3 2
   4    2    6 1
   5    3    4 1
   6    4    5 2
   7    4   12 1
   8    6    7 2
   9    6   10 1
  10    7    8 1
  11    7   31 1
  12    8    9 ar
  13    8   26 ar
  14    9   10 1
  15    9   29 ar
  16   10   32 1
  17   11   12 1
  18   11   16 1
  19   11   33 1
  20   11   34 1
  21   12   13 1
  22   12   35 1
  23   13   14 1
  24   13   36 1
  25   13   37 1
  26   14   15 1
  27   14   38 1
  28   14   39 1
  29   15   16 1
  30   15   40 1
  31   15   41 1
  32   16   17 am
  33   17   18 1
  34   17   19 2
  35   18   20 ar
  36   18   24 ar
  37   20   21 ar
  38   20   42 1
  39   21   22 ar
  40   21   43 1
  41   22   23 ar
  42   22   25 1
  43   23   24 ar
  44   23   44 1
  45   24   30 1
  46   26   27 ar
  47   26   45 1
  48   27   28 ar
  49   27   46 1
  50   28   29 ar
  51   28   47 1
  52   29   48 1

#	End of record

