#	Name: ASD01028535
#	Creating user name:	WinNT
#	Creation time:	15. 06. 2019 18:57

#	Modifying user name:	WinNT
#	Modification time:	15. 06. 2019 18:57

#	Program:	/corina/corina34_cracker 3.40 0067  02.08.2006

@<TRIPOS>MOLECULE
ASD01028535
  41   45    0    0    0
SMALL
NO_CHARGES


@<TRIPOS>ATOM
   1 N1            -0.0169     1.3921     0.0097 N.2     
   2 N2             0.0021    -0.0041     0.0020 N.pl3   
   3 C3             1.1072     2.0742     0.0026 C.2     
   4 C4             2.3534     1.4122    -0.0128 C.2     
   5 C5             2.4037     0.0541    -0.0206 C.2     
   6 C6             1.2006    -0.6771    -0.0130 C.2     
   7 N7             0.9143    -1.9688    -0.0172 N.2     
   8 N8            -0.3640    -2.1207    -0.0058 N.2     
   9 C9            -0.9586    -0.9538     0.0061 C.2     
  10 C10           -2.4463    -0.7138     0.0215 C.3     
  11 C11            1.0649     3.5569     0.0105 C.ar    
  12 C12           -2.9288    -0.6420     1.4474 C.ar    
  13 C13           -2.9552     0.5593     2.0881 C.ar    
  14 C14           -3.3472    -1.8046     2.0909 C.ar    
  15 C15           -3.7886    -1.7750     3.3781 C.ar    
  16 C16           -3.8253    -0.5549     4.0749 C.ar    
  17 C17           -3.4045     0.6273     3.4164 C.ar    
  18 N18           -4.2535    -0.4951     5.3400 N.ar    
  19 C19           -4.2892     0.6402     5.9943 C.ar    
  20 C20           -3.8852     1.8377     5.4077 C.ar    
  21 C21           -3.4420     1.8484     4.1159 C.ar    
  22 C22           -0.1602     4.2207     0.0253 C.ar    
  23 C23           -0.1962     5.6003     0.0325 C.ar    
  24 C24            0.9830     6.3263     0.0247 C.ar    
  25 C25            2.2061     5.6704     0.0095 C.ar    
  26 C26            2.2506     4.2898     0.0089 C.ar    
  27 F27            0.9428     7.6767     0.0314 F       
  28 F28            3.3540     6.3827     0.0009 F       
  29 H29            3.2685     1.9857    -0.0188 H       
  30 H30            3.3546    -0.4578    -0.0324 H       
  31 H31           -2.6681     0.2256    -0.4848 H       
  32 H32           -2.9516    -1.5316    -0.4922 H       
  33 H33           -2.6322     1.4544     1.5775 H       
  34 H34           -3.3212    -2.7446     1.5597 H       
  35 H35           -4.1098    -2.6855     3.8621 H       
  36 H36           -4.6416     0.6475     7.0152 H       
  37 H37           -3.9267     2.7573     5.9726 H       
  38 H38           -3.1246     2.7674     3.6456 H       
  39 H39           -1.0808     3.6560     0.0307 H       
  40 H40           -1.1457     6.1147     0.0440 H       
  41 H41            3.2022     3.7792    -0.0030 H       
@<TRIPOS>BOND
   1    1    2 1
   2    1    3 2
   3    2    6 1
   4    2    9 1
   5    3    4 1
   6    3   11 1
   7    4    5 2
   8    4   29 1
   9    5    6 1
  10    5   30 1
  11    6    7 2
  12    7    8 1
  13    8    9 2
  14    9   10 1
  15   10   12 1
  16   10   31 1
  17   10   32 1
  18   11   22 ar
  19   11   26 ar
  20   12   13 ar
  21   12   14 ar
  22   13   17 ar
  23   13   33 1
  24   14   15 ar
  25   14   34 1
  26   15   16 ar
  27   15   35 1
  28   16   17 ar
  29   16   18 ar
  30   17   21 ar
  31   18   19 ar
  32   19   20 ar
  33   19   36 1
  34   20   21 ar
  35   20   37 1
  36   21   38 1
  37   22   23 ar
  38   22   39 1
  39   23   24 ar
  40   23   40 1
  41   24   25 ar
  42   24   27 1
  43   25   26 ar
  44   25   28 1
  45   26   41 1

#	End of record

