#	Name: ASD04590447
#	Creating user name:	WinNT
#	Creation time:	15. 06. 2019 20:50

#	Modifying user name:	WinNT
#	Modification time:	15. 06. 2019 20:50

#	Program:	/corina/corina34_cracker 3.40 0067  02.08.2006

@<TRIPOS>MOLECULE
ASD04590447
  58   62    0    0    0
SMALL
NO_CHARGES


@<TRIPOS>ATOM
   1 C1            -0.0168     1.3876     0.0097 C.ar    
   2 C2             0.0021    -0.0041     0.0020 C.ar    
   3 C3             2.4052     0.0260    -0.0207 C.ar    
   4 C4             2.3773     1.4317    -0.0129 C.ar    
   5 C5             1.1626     2.1017     0.0022 C.ar    
   6 N6             3.7079    -0.3491    -0.0359 N.2     
   7 C7             4.4734     0.7155    -0.0379 C.2     
   8 N8             3.6984     1.8435    -0.0241 N.pl3   
   9 C9             5.9508     0.6997    -0.0529 C.2     
  10 C10            6.7697    -0.4530    -0.0679 C.2     
  11 C11            8.0614    -0.0422    -0.0794 C.2     
  12 N12            8.0664     1.3167    -0.0721 N.pl3   
  13 N13            6.7373     1.7581    -0.0605 N.2     
  14 N14            6.3245    -1.7849    -0.0703 N.am    
  15 C15            7.2178    -2.7940    -0.0853 C.2     
  16 O16            8.4094    -2.5511    -0.0966 O.2     
  17 C17            6.7501    -4.1931    -0.0879 C.ar    
  18 C18            1.2021    -0.6867    -0.0131 C.ar    
  19 C19            6.5399    -4.8669     1.1201 C.ar    
  20 O20           -1.1686    -0.6957     0.0099 O.3     
  21 C21           -2.3747     0.0705     0.0260 C.3     
  22 C22           -3.5787    -0.8736     0.0329 C.3     
  23 C23           -4.8671    -0.0588     0.1758 C.3     
  24 C24            6.1011    -6.1776     1.1085 C.ar    
  25 C25            5.8704    -6.8231    -0.0927 C.ar    
  26 C26            6.0761    -6.1647    -1.2915 C.ar    
  27 C27            6.5086    -4.8520    -1.2983 C.ar    
  28 F28            6.7085    -4.2105    -2.4704 F       
  29 F29            6.7655    -4.2384     2.2946 F       
  30 C30           -3.6225    -1.6566    -1.2823 C.3     
  31 C31           -4.8620    -2.5541    -1.2950 C.3     
  32 N32           -6.0678    -1.7275    -1.1562 N.3     
  33 C33           -6.0705    -1.0026     0.1208 C.3     
  34 C34           -7.2828    -2.5401    -1.3030 C.3     
  35 H35           -0.9612     1.9114     0.0170 H       
  36 H36            1.1409     3.1815     0.0079 H       
  37 H37            4.0157     2.7601    -0.0227 H       
  38 H38            8.9319    -0.6813    -0.0915 H       
  39 H39            8.8540     1.8829    -0.0771 H       
  40 H40            5.3741    -1.9786    -0.0613 H       
  41 H41            1.2115    -1.7666    -0.0186 H       
  42 H42           -2.3970     0.6943     0.9196 H       
  43 H43           -2.4147     0.7038    -0.8603 H       
  44 H44           -3.4922    -1.5680     0.8686 H       
  45 H45           -4.8608     0.4676     1.1302 H       
  46 H46           -4.9333     0.6631    -0.6382 H       
  47 H47            5.9383    -6.6992     2.0400 H       
  48 H48            5.5280    -7.8474    -0.0946 H       
  49 H49            5.8941    -6.6765    -2.2250 H       
  50 H50           -3.6691    -0.9598    -2.1192 H       
  51 H51           -2.7269    -2.2717    -1.3696 H       
  52 H52           -4.9038    -3.1023    -2.2361 H       
  53 H53           -4.8079    -3.2597    -0.4659 H       
  54 H54           -6.0109    -1.7155     0.9432 H       
  55 H55           -6.9902    -0.4240     0.2080 H       
  56 H56           -7.2982    -3.3126    -0.5342 H       
  57 H57           -8.1609    -1.9033    -1.1958 H       
  58 H58           -7.2907    -3.0072    -2.2877 H       
@<TRIPOS>BOND
   1    1    2 ar
   2    1    5 ar
   3    1   35 1
   4    2   18 ar
   5    2   20 1
   6    3    4 ar
   7    3    6 1
   8    3   18 ar
   9    4    5 ar
  10    4    8 1
  11    5   36 1
  12    6    7 2
  13    7    8 1
  14    7    9 1
  15    8   37 1
  16    9   10 1
  17    9   13 2
  18   10   11 2
  19   10   14 1
  20   11   12 1
  21   11   38 1
  22   12   13 1
  23   12   39 1
  24   14   15 am
  25   14   40 1
  26   15   16 2
  27   15   17 1
  28   17   19 ar
  29   17   27 ar
  30   18   41 1
  31   19   24 ar
  32   19   29 1
  33   20   21 1
  34   21   22 1
  35   21   42 1
  36   21   43 1
  37   22   23 1
  38   22   30 1
  39   22   44 1
  40   23   33 1
  41   23   45 1
  42   23   46 1
  43   24   25 ar
  44   24   47 1
  45   25   26 ar
  46   25   48 1
  47   26   27 ar
  48   26   49 1
  49   27   28 1
  50   30   31 1
  51   30   50 1
  52   30   51 1
  53   31   32 1
  54   31   52 1
  55   31   53 1
  56   32   33 1
  57   32   34 1
  58   33   54 1
  59   33   55 1
  60   34   56 1
  61   34   57 1
  62   34   58 1

#	End of record

