#	Name: ASD01180005
#	Creating user name:	WinNT
#	Creation time:	15. 06. 2019 19:06

#	Modifying user name:	WinNT
#	Modification time:	15. 06. 2019 19:06

#	Program:	/corina/corina34_cracker 3.40 0067  02.08.2006

@<TRIPOS>MOLECULE
ASD01180005
  58   60    0    0    0
SMALL
NO_CHARGES


@<TRIPOS>ATOM
   1 C1             0.2328    -0.6291    -1.0548 C.2     
   2 C2             0.7359    -2.0300    -1.2903 C.3     
   3 C3             2.2590    -2.0557    -1.1474 C.3     
   4 O4             1.0125     0.2578    -0.7989 O.2     
   5 O5            -1.0809    -0.3655    -1.1347 O.3     
   6 N6             2.7481    -3.4175    -1.3763 N.am    
   7 S7             4.3589    -3.6830    -1.6541 S.o2    
   8 O8             4.5145    -5.0878    -1.8012 O.2     
   9 O9             4.7538    -2.7489    -2.6494 O.2     
  10 C10            5.2220    -3.2382    -0.1838 C.ar    
  11 C11            5.4459    -4.1839     0.7992 C.ar    
  12 C12            6.1230    -3.8349     1.9527 C.ar    
  13 C13            6.5766    -2.5402     2.1230 C.ar    
  14 C14            6.3534    -1.5947     1.1396 C.ar    
  15 C15            5.6801    -1.9448    -0.0158 C.ar    
  16 C16            7.3138    -2.1594     3.3810 C.3     
  17 S17            9.0921    -2.4285     3.1446 S.o2    
  18 O18            9.3772    -3.8169     3.0430 O.2     
  19 O19            9.6157    -1.5023     2.2027 O.2     
  20 N20           10.2460    -2.8672     5.5100 N.ar    
  21 C21            9.8171    -1.9470     4.6766 C.ar    
  22 C22            9.9300    -0.5911     4.9914 C.ar    
  23 N23           10.4673    -0.2085     6.1272 N.ar    
  24 C24           10.9113    -1.1262     6.9930 C.ar    
  25 C25           11.4915    -0.7490     8.2161 C.ar    
  26 C26           11.9346    -1.7066     9.0770 C.ar    
  27 C27           11.8217    -3.0621     8.7624 C.ar    
  28 C28           11.2649    -3.4636     7.5863 C.ar    
  29 C29           10.7962    -2.5033     6.6736 C.ar    
  30 C30            9.4303     0.4443     4.0171 C.3     
  31 C31            8.5360     1.4456     4.7510 C.3     
  32 C32           10.6210     1.1807     3.4001 C.3     
  33 Cl33          12.3996    -4.2525     9.8861 Cl      
  34 Cl34          12.6505    -1.2351    10.5866 Cl      
  35 C35           -1.4937     1.0060    -0.8960 C.3     
  36 H36            0.2909    -2.7038    -0.5581 H       
  37 H37            0.4598    -2.3512    -2.2946 H       
  38 H38            2.7040    -1.3819    -1.8796 H       
  39 H39            2.5352    -1.7345    -0.1431 H       
  40 H40            2.1284    -4.1637    -1.3652 H       
  41 H41            5.0916    -5.1954     0.6661 H       
  42 H42            6.2973    -4.5736     2.7210 H       
  43 H43            6.7075    -0.5831     1.2729 H       
  44 H44            5.5090    -1.2070    -0.7857 H       
  45 H45            7.1320    -1.1082     3.6047 H       
  46 H46            6.9604    -2.7736     4.2093 H       
  47 H47           11.5858     0.2960     8.4721 H       
  48 H48           11.1843    -4.5156     7.3557 H       
  49 H49            8.8576    -0.0448     3.2291 H       
  50 H50            9.1086     1.9346     5.5390 H       
  51 H51            8.1745     2.1945     4.0463 H       
  52 H52            7.6876     0.9209     5.1905 H       
  53 H53           11.2581     0.4674     2.8773 H       
  54 H54           10.2596     1.9296     2.6954 H       
  55 H55           11.1937     1.6698     4.1882 H       
  56 H56           -1.0186     1.6608    -1.6265 H       
  57 H57           -2.5770     1.0811    -0.9910 H       
  58 H58           -1.1955     1.3056     0.1087 H       
@<TRIPOS>BOND
   1    1    2 1
   2    1    4 2
   3    1    5 1
   4    2    3 1
   5    2   36 1
   6    2   37 1
   7    3    6 1
   8    3   38 1
   9    3   39 1
  10    5   35 1
  11    6    7 am
  12    6   40 1
  13    7    8 2
  14    7    9 2
  15    7   10 1
  16   10   11 ar
  17   10   15 ar
  18   11   12 ar
  19   11   41 1
  20   12   13 ar
  21   12   42 1
  22   13   14 ar
  23   13   16 1
  24   14   15 ar
  25   14   43 1
  26   15   44 1
  27   16   17 1
  28   16   45 1
  29   16   46 1
  30   17   18 2
  31   17   19 2
  32   17   21 1
  33   20   21 ar
  34   20   29 ar
  35   21   22 ar
  36   22   23 ar
  37   22   30 1
  38   23   24 ar
  39   24   25 ar
  40   24   29 ar
  41   25   26 ar
  42   25   47 1
  43   26   27 ar
  44   26   34 1
  45   27   28 ar
  46   27   33 1
  47   28   29 ar
  48   28   48 1
  49   30   31 1
  50   30   32 1
  51   30   49 1
  52   31   50 1
  53   31   51 1
  54   31   52 1
  55   32   53 1
  56   32   54 1
  57   32   55 1
  58   35   56 1
  59   35   57 1
  60   35   58 1

#	End of record

