#	Name: ASD01148408
#	Creating user name:	WinNT
#	Creation time:	15. 06. 2019 19:02

#	Modifying user name:	WinNT
#	Modification time:	15. 06. 2019 19:02

#	Program:	/corina/corina34_cracker 3.40 0067  02.08.2006

@<TRIPOS>MOLECULE
ASD01148408
  52   55    0    0    0
SMALL
NO_CHARGES


@<TRIPOS>ATOM
   1 C1             0.3639     1.8424     0.0684 C.ar    
   2 C2             0.4625     0.4636    -0.0068 C.ar    
   3 C3            -0.6839    -0.3075    -0.0943 C.ar    
   4 C4            -1.9265     0.3004    -0.1066 C.ar    
   5 C5            -2.0237     1.6772    -0.0319 C.ar    
   6 C6            -0.8799     2.4478     0.0617 C.ar    
   7 C7            -3.3779     2.3383    -0.0464 C.3     
   8 O8            -4.3707     1.4946     0.5717 O.3     
   9 C9            -3.3986     3.5787     0.8785 C.3     
  10 C10           -3.9261     3.0093     2.1818 C.2     
  11 N11           -4.4465     1.8536     1.9372 N.2     
  12 C12           -3.8559     3.6642     3.5028 C.ar    
  13 C13           -4.3836     3.0255     4.6282 C.ar    
  14 C14           -3.2569     4.9199     3.6291 C.ar    
  15 C15           -3.1916     5.5305     4.8614 C.ar    
  16 C16           -3.7238     4.8944     5.9851 C.ar    
  17 C17           -4.3182     3.6363     5.8599 C.ar    
  18 C18           -3.6528     5.5497     7.3080 C.2     
  19 O19           -4.2121     5.0500     8.2646 O.2     
  20 N20           -2.9678     6.7012     7.4537 N.am    
  21 C21           -4.8928     2.9503     7.0725 C.3     
  22 C22           -3.7871     2.7109    -1.4728 C.3     
  23 F23           -3.8264     1.5571    -2.2630 F       
  24 F24           -5.0527     3.3068    -1.4542 F       
  25 F25           -2.8563     3.6094    -2.0053 F       
  26 Cl26          -0.5621    -2.0366    -0.1892 Cl      
  27 Cl27           2.0225    -0.2978     0.0081 Cl      
  28 Cl28           1.8004     2.8110     0.1781 Cl      
  29 C29           -2.8974     7.3507     8.7650 C.3     
  30 C30           -2.0789     8.6115     8.6578 C.ar    
  31 N31           -0.7658     8.5464     8.7570 N.ar    
  32 C32           -0.0094     9.6232     8.6694 C.ar    
  33 C33           -0.5733    10.8687     8.4691 C.ar    
  34 C34           -1.9514    10.9769     8.3598 C.ar    
  35 C35           -2.7132     9.8222     8.4509 C.ar    
  36 H36           -2.8210    -0.3010    -0.1748 H       
  37 H37           -0.9571     3.5234     0.1204 H       
  38 H38           -2.3937     3.9799     1.0102 H       
  39 H39           -4.0728     4.3411     0.4883 H       
  40 H40           -4.8431     2.0530     4.5314 H       
  41 H41           -2.8448     5.4115     2.7603 H       
  42 H42           -2.7286     6.5013     4.9591 H       
  43 H43           -2.5215     7.1000     6.6904 H       
  44 H44           -5.9000     3.3235     7.2579 H       
  45 H45           -4.9301     1.8750     6.8980 H       
  46 H46           -4.2638     3.1563     7.9386 H       
  47 H47           -3.9039     7.5985     9.1023 H       
  48 H48           -2.4306     6.6743     9.4809 H       
  49 H49            1.0632     9.5305     8.7555 H       
  50 H50            0.0514    11.7469     8.3989 H       
  51 H51           -2.4199    11.9373     8.2034 H       
  52 H52           -3.7891     9.8691     8.3700 H       
@<TRIPOS>BOND
   1    1    2 ar
   2    1   28 1
   3    1    6 ar
   4    2    3 ar
   5    2   27 1
   6    3    4 ar
   7    3   26 1
   8    4    5 ar
   9    4   36 1
  10    5    6 ar
  11    5    7 1
  12    6   37 1
  13    7    8 1
  14    7    9 1
  15    7   22 1
  16    8   11 1
  17    9   10 1
  18    9   38 1
  19    9   39 1
  20   10   11 2
  21   10   12 1
  22   12   13 ar
  23   12   14 ar
  24   13   17 ar
  25   13   40 1
  26   14   15 ar
  27   14   41 1
  28   15   16 ar
  29   15   42 1
  30   16   17 ar
  31   16   18 1
  32   17   21 1
  33   18   19 2
  34   18   20 am
  35   20   29 1
  36   20   43 1
  37   21   44 1
  38   21   45 1
  39   21   46 1
  40   22   23 1
  41   22   24 1
  42   22   25 1
  43   29   30 1
  44   29   47 1
  45   29   48 1
  46   30   31 ar
  47   30   35 ar
  48   31   32 ar
  49   32   33 ar
  50   32   49 1
  51   33   34 ar
  52   33   50 1
  53   34   35 ar
  54   34   51 1
  55   35   52 1

#	End of record

