#	Name: ASD02039427
#	Creating user name:	WinNT
#	Creation time:	15. 06. 2019 20:18

#	Modifying user name:	WinNT
#	Modification time:	15. 06. 2019 20:18

#	Program:	/corina/corina34_cracker 3.40 0067  02.08.2006

@<TRIPOS>MOLECULE
ASD02039427
  54   57    0    0    0
SMALL
NO_CHARGES


@<TRIPOS>ATOM
   1 C1             0.1565     1.8242    -0.0339 C.ar    
   2 C2             0.5905     0.5147    -0.1349 C.ar    
   3 C3             1.1585     2.9498    -0.0296 C.3     
   4 N4             1.4924     3.3117    -1.4094 N.am    
   5 C5             0.8602     4.3404    -2.0081 C.2     
   6 C6            -0.2432     5.0297    -1.3168 C.2     
   7 C7            -1.0293     6.0161    -1.8365 C.2     
   8 N8            -0.6667     4.7949    -0.0485 N.2     
   9 C9            -1.6604     5.5924     0.2179 C.2     
  10 N10           -1.9118     6.3648    -0.8709 N.pl3   
  11 O11            1.2005     4.6998    -3.1191 O.2     
  12 C12           -2.9511     7.3916    -0.9804 C.3     
  13 C13            2.5135     2.5553    -2.1385 C.3     
  14 C14           -0.3223    -0.5241    -0.1395 C.ar    
  15 C15           -2.1188     1.0626     0.0473 C.ar    
  16 C16           -1.1922     2.1031     0.0571 C.ar    
  17 C17           -3.5691     1.3562     0.1444 C.ar    
  18 C18           -4.1222     2.4035    -0.5933 C.ar    
  19 C19           -1.6756    -0.2582    -0.0432 C.ar    
  20 N20           -4.3477     0.6191     0.9303 N.ar    
  21 C21           -5.6386     0.8843     1.0136 C.ar    
  22 C22           -6.1820     1.9273     0.2843 C.ar    
  23 N23           -5.4133     2.6605    -0.5032 N.ar    
  24 C24           -7.6561     2.2247     0.3832 C.3     
  25 C25            1.9113     1.9958    -3.4310 C.3     
  26 C26            3.0046     1.2745    -4.2237 C.3     
  27 O27            4.0746     2.1829    -4.4920 O.3     
  28 C28            4.7070     2.7019    -3.3203 C.3     
  29 C29            3.6821     3.4805    -2.4913 C.3     
  30 F30           -2.5672    -1.2732    -0.0477 F       
  31 F31           -7.8787     3.1402     1.4174 F       
  32 F32           -8.1043     2.7683    -0.8254 F       
  33 F33           -8.3537     1.0416     0.6495 F       
  34 H34            1.6468     0.3026    -0.2107 H       
  35 H35            0.7320     3.8140     0.4796 H       
  36 H36            2.0614     2.6305     0.4908 H       
  37 H37           -0.9606     6.4382    -2.8282 H       
  38 H38           -2.2000     5.6315     1.1527 H       
  39 H39           -2.5481     8.3521    -0.6589 H       
  40 H40           -3.2819     7.4648    -2.0164 H       
  41 H41           -3.7963     7.1220    -0.3472 H       
  42 H42            2.8715     1.7340    -1.5177 H       
  43 H43            0.0225    -1.5445    -0.2189 H       
  44 H44           -1.5292     3.1268     0.1270 H       
  45 H45           -3.4948     3.0028    -1.2365 H       
  46 H46           -6.2716     0.2859     1.6520 H       
  47 H47            1.1144     1.2932    -3.1873 H       
  48 H48            1.5075     2.8132    -4.0284 H       
  49 H49            3.3798     0.4325    -3.6420 H       
  50 H50            2.5916     0.9112    -5.1647 H       
  51 H51            5.1045     1.8785    -2.7268 H       
  52 H52            5.5204     3.3668    -3.6105 H       
  53 H53            3.3140     4.3279    -3.0697 H       
  54 H54            4.1516     3.8398    -1.5756 H       
@<TRIPOS>BOND
   1    1    2 ar
   2    1    3 1
   3    1   16 ar
   4    2   14 ar
   5    2   34 1
   6    3    4 1
   7    3   35 1
   8    3   36 1
   9    4    5 am
  10    4   13 1
  11    5    6 1
  12    5   11 2
  13    6    7 2
  14    6    8 1
  15    7   10 1
  16    7   37 1
  17    8    9 2
  18    9   10 1
  19    9   38 1
  20   10   12 1
  21   12   39 1
  22   12   40 1
  23   12   41 1
  24   13   25 1
  25   13   29 1
  26   13   42 1
  27   14   19 ar
  28   14   43 1
  29   15   16 ar
  30   15   17 1
  31   15   19 ar
  32   16   44 1
  33   17   20 ar
  34   17   18 ar
  35   18   23 ar
  36   18   45 1
  37   19   30 1
  38   20   21 ar
  39   21   22 ar
  40   21   46 1
  41   22   23 ar
  42   22   24 1
  43   24   31 1
  44   24   32 1
  45   24   33 1
  46   25   26 1
  47   25   47 1
  48   25   48 1
  49   26   27 1
  50   26   49 1
  51   26   50 1
  52   27   28 1
  53   28   29 1
  54   28   51 1
  55   28   52 1
  56   29   53 1
  57   29   54 1

#	End of record

