#	Name: ASD01001135
#	Creating user name:	WinNT
#	Creation time:	15. 06. 2019 18:55

#	Modifying user name:	WinNT
#	Modification time:	15. 06. 2019 18:55

#	Program:	/corina/corina34_cracker 3.40 0067  02.08.2006

@<TRIPOS>MOLECULE
ASD01001135
  52   54    0    0    0
SMALL
NO_CHARGES


@<TRIPOS>ATOM
   1 C1             0.2219     0.8943     1.1243 C.2     
   2 S2             0.0047    -0.8432     1.2847 S.3     
   3 C3             1.6633    -1.0671     1.6165 C.2     
   4 C4             2.3163     0.1010     1.6022 C.2     
   5 C5             1.5378     1.2011     1.3316 C.2     
   6 C6            -0.8366     1.8580     0.8121 C.2     
   7 O7            -0.5739     3.0431     0.7239 O.2     
   8 N8            -2.1012     1.4321     0.6226 N.am    
   9 C9            -4.5633     4.3121    -0.1778 C.2     
  10 C10           -5.2520     3.1649    -0.1744 C.2     
  11 C11           -4.4130     2.0169     0.1177 C.2     
  12 C12           -3.1020     2.3432     0.3275 C.2     
  13 S13           -2.8679     4.0227     0.1764 S.3     
  14 C14           -4.9212     0.6434     0.1814 C.2     
  15 O15           -5.0347    -0.0114    -0.8383 O.2     
  16 N16           -5.2627     0.1056     1.3691 N.am    
  17 C17           -5.0233     0.8517     2.6070 C.3     
  18 C18           -6.2922     1.6122     2.9975 C.3     
  19 C19           -4.7752    -2.2868     1.5110 C.3     
  20 C20           -5.8732    -1.2250     1.4222 C.3     
  21 C21           -5.1711     5.6732    -0.4573 C.3     
  22 C22           -6.6920     5.5720    -0.3132 C.3     
  23 C23           -7.1930     4.3773    -1.1302 C.3     
  24 C24           -6.7454     3.0816    -0.4467 C.3     
  25 C25           -8.7207     4.4134    -1.2045 C.3     
  26 C26           -9.1643     5.6518    -1.9858 C.3     
  27 H27            2.1245    -2.0238     1.8126 H       
  28 H28            3.3773     0.1740     1.7899 H       
  29 H29            1.9269     2.2076     1.2873 H       
  30 H30           -2.3105     0.4876     0.6929 H       
  31 H31           -4.7561     0.1575     3.4037 H       
  32 H32           -4.2085     1.5592     2.4530 H       
  33 H33           -7.1054     0.9043     3.1573 H       
  34 H34           -6.1122     2.1721     3.9152 H       
  35 H35           -6.5628     2.3021     2.1982 H       
  36 H36           -4.1771    -2.2680     0.6000 H       
  37 H37           -4.1366    -2.0782     2.3694 H       
  38 H38           -5.2298    -3.2707     1.6270 H       
  39 H39           -6.5175    -1.2944     2.2987 H       
  40 H40           -6.4655    -1.3893     0.5221 H       
  41 H41           -4.7838     6.4000     0.2568 H       
  42 H42           -4.9200     5.9844    -1.4713 H       
  43 H43           -6.9502     5.4301     0.7363 H       
  44 H44           -7.1550     6.4868    -0.6833 H       
  45 H45           -6.7773     4.4244    -2.1367 H       
  46 H46           -6.9467     2.2343    -1.1022 H       
  47 H47           -7.2868     2.9573     0.4912 H       
  48 H48           -9.0812     3.5170    -1.7092 H       
  49 H49           -9.1327     4.4531    -0.1961 H       
  50 H50          -10.2527     5.6775    -2.0388 H       
  51 H51           -8.8038     6.5482    -1.4811 H       
  52 H52           -8.7523     5.6120    -2.9942 H       
@<TRIPOS>BOND
   1    1    2 1
   2    1    5 2
   3    1    6 1
   4    2    3 1
   5    3    4 2
   6    3   27 1
   7    4    5 1
   8    4   28 1
   9    5   29 1
  10    6    7 2
  11    6    8 am
  12    8   12 1
  13    8   30 1
  14    9   10 2
  15    9   13 1
  16    9   21 1
  17   10   11 1
  18   10   24 1
  19   11   12 2
  20   11   14 1
  21   12   13 1
  22   14   15 2
  23   14   16 am
  24   16   17 1
  25   16   20 1
  26   17   18 1
  27   17   31 1
  28   17   32 1
  29   18   33 1
  30   18   34 1
  31   18   35 1
  32   19   20 1
  33   19   36 1
  34   19   37 1
  35   19   38 1
  36   20   39 1
  37   20   40 1
  38   21   22 1
  39   21   41 1
  40   21   42 1
  41   22   23 1
  42   22   43 1
  43   22   44 1
  44   23   24 1
  45   23   25 1
  46   23   45 1
  47   24   46 1
  48   24   47 1
  49   25   26 1
  50   25   48 1
  51   25   49 1
  52   26   50 1
  53   26   51 1
  54   26   52 1

#	End of record

