#	Name: ASD07100001
#	Creating user name:	WinNT
#	Creation time:	15. 06. 2019 21:08

#	Modifying user name:	WinNT
#	Modification time:	15. 06. 2019 21:08

#	Program:	/corina/corina34_cracker 3.40 0067  02.08.2006

@<TRIPOS>MOLECULE
ASD07100001
  28   27    0    0    0
SMALL
NO_CHARGES


@<TRIPOS>ATOM
   1 C1            -0.0187     1.5258     0.0104 C.3     
   2 C2             0.0021    -0.0041     0.0020 C.3     
   3 C3             1.4167     2.0553    -0.0004 C.3     
   4 O4            -1.3386    -0.4987     0.0122 O.3     
   5 C5             1.3991     3.5794     0.1337 C.3     
   6 C6             2.1928     1.4493     1.1706 C.3     
   7 O7             2.0490     1.6926    -1.2295 O.3     
   8 P8            -1.6939    -2.0690     0.0071 P.3     
   9 O9            -3.2884    -2.2580    -0.1110 O.3     
  10 O10           -1.0041    -2.7492    -1.1964 O.co2   
  11 O11           -1.1946    -2.7142     1.3191 O.co2   
  12 P12           -4.2436    -3.5043    -0.4666 P.3     
  13 O13           -3.6171    -4.8219     0.1043 O.co2   
  14 O14           -5.6563    -3.2784     0.1719 O.co2   
  15 O15           -4.3868    -3.6253    -2.0220 O.co2   
  16 C16            2.8129     4.1010     0.1230 C.2     
  17 O17            3.7479     3.3257     0.0178 O.co2   
  18 O18            3.0216     5.2983     0.2194 O.co2   
  19 H19           -0.5459     1.8868    -0.8726 H       
  20 H20           -0.5289     1.8773     0.9072 H       
  21 H21            0.5123    -0.3556    -0.8948 H       
  22 H22            0.5293    -0.3651     0.8851 H       
  23 H23            0.8462     4.0111    -0.7006 H       
  24 H24            0.9168     3.8561     1.0712 H       
  25 H25            2.2054     0.3636     1.0751 H       
  26 H26            3.2154     1.8266     1.1629 H       
  27 H27            1.7105     1.7260     2.1081 H       
  28 H28            1.6095     2.0432    -2.0163 H       
@<TRIPOS>BOND
   1    1    2 1
   2    1    3 1
   3    1   19 1
   4    1   20 1
   5    2    4 1
   6    2   21 1
   7    2   22 1
   8    3    5 1
   9    3    6 1
  10    3    7 1
  11    4    8 1
  12    5   16 1
  13    5   23 1
  14    5   24 1
  15    6   25 1
  16    6   26 1
  17    6   27 1
  18    7   28 1
  19    8    9 1
  20    8   10 ar
  21    8   11 ar
  22    9   12 1
  23   12   13 ar
  24   12   14 ar
  25   12   15 ar
  26   16   17 ar
  27   16   18 ar

#	End of record

