#	Name: ASD01150961
#	Creating user name:	WinNT
#	Creation time:	15. 06. 2019 19:05

#	Modifying user name:	WinNT
#	Modification time:	15. 06. 2019 19:05

#	Program:	/corina/corina34_cracker 3.40 0067  02.08.2006

@<TRIPOS>MOLECULE
ASD01150961
  56   58    0    0    0
SMALL
NO_CHARGES


@<TRIPOS>ATOM
   1 N1            -0.0170     1.3996     0.0097 N.am    
   2 C2             0.0021    -0.0041     0.0020 C.2     
   3 N3             1.0895    -0.7695    -0.0120 N.2     
   4 C4             0.7328    -2.0404    -0.0156 C.2     
   5 N5            -0.6406    -2.1116    -0.0035 N.pl3   
   6 C6            -1.1061    -0.8301     0.0137 C.2     
   7 O7            -2.4047    -0.4413     0.0304 O.3     
   8 C8            -3.0135    -0.2677     1.3116 C.3     
   9 C9             1.6475    -3.1845    -0.0301 C.2     
  10 O10            2.9814    -2.9817    -0.0407 O.3     
  11 C11           -1.4144    -3.2793    -0.0027 C.ar    
  12 C12           -1.3659    -4.1454     1.0816 C.ar    
  13 C13           -2.1304    -5.2956     1.0795 C.ar    
  14 C14           -2.9432    -5.5854    -0.0010 C.ar    
  15 C15           -2.9934    -4.7251    -1.0825 C.ar    
  16 C16           -2.2360    -3.5702    -1.0837 C.ar    
  17 C17            1.1409     2.0893     0.0024 C.2     
  18 O18            2.2021     1.4958    -0.0109 O.2     
  19 C19            1.1209     3.5668     0.0105 C.ar    
  20 C20            2.3188     4.2840     0.0029 C.ar    
  21 C21            2.2937     5.6627     0.0106 C.ar    
  22 C22            1.0833     6.3361     0.0258 C.ar    
  23 C23           -0.1083     5.6300     0.0334 C.ar    
  24 C24           -0.0961     4.2512     0.0200 C.ar    
  25 Cl25           1.0598     8.0719     0.0360 Cl      
  26 O26            1.2044    -4.3174    -0.0326 O.2     
  27 C27            3.8141    -4.1430    -0.0545 C.3     
  28 C28            5.2835    -3.7168    -0.0650 C.3     
  29 C29            3.5361    -4.9848     1.1925 C.3     
  30 C30            3.5141    -4.9707    -1.3059 C.3     
  31 O31            6.1161    -4.8781    -0.0789 O.3     
  32 C32            7.5157    -4.5897    -0.0895 C.3     
  33 H33           -0.8635     1.8732     0.0163 H       
  34 H34           -2.4721     0.4954     1.8707 H       
  35 H35           -4.0501     0.0436     1.1821 H       
  36 H36           -2.9827    -1.2097     1.8591 H       
  37 H37           -0.7307    -3.9200     1.9255 H       
  38 H38           -2.0931    -5.9696     1.9226 H       
  39 H39           -3.5399    -6.4856    -0.0004 H       
  40 H40           -3.6289    -4.9543    -1.9251 H       
  41 H41           -2.2755    -2.8987    -1.9287 H       
  42 H42            3.2631     3.7601    -0.0086 H       
  43 H43            3.2196     6.2186     0.0051 H       
  44 H44           -1.0490     6.1605     0.0453 H       
  45 H45           -1.0258     3.7017     0.0256 H       
  46 H46            5.4815    -3.1171    -0.9534 H       
  47 H47            5.4971    -3.1272     0.8265 H       
  48 H48            2.4892    -5.2884     1.1999 H       
  49 H49            4.1712    -5.8706     1.1819 H       
  50 H50            3.7497    -4.3951     2.0839 H       
  51 H51            3.7122    -4.3709    -2.1943 H       
  52 H52            4.1493    -5.8564    -1.3165 H       
  53 H53            2.4673    -5.2743    -1.2984 H       
  54 H54            7.7600    -4.0081    -0.9784 H       
  55 H55            7.7757    -4.0181     0.8014 H       
  56 H56            8.0789    -5.5229    -0.0998 H       
@<TRIPOS>BOND
   1    1    2 1
   2    1   17 am
   3    1   33 1
   4    2    3 1
   5    2    6 2
   6    3    4 2
   7    4    5 1
   8    4    9 1
   9    5    6 1
  10    5   11 1
  11    6    7 1
  12    7    8 1
  13    8   34 1
  14    8   35 1
  15    8   36 1
  16    9   10 1
  17    9   26 2
  18   10   27 1
  19   11   12 ar
  20   11   16 ar
  21   12   13 ar
  22   12   37 1
  23   13   14 ar
  24   13   38 1
  25   14   15 ar
  26   14   39 1
  27   15   16 ar
  28   15   40 1
  29   16   41 1
  30   17   18 2
  31   17   19 1
  32   19   20 ar
  33   19   24 ar
  34   20   21 ar
  35   20   42 1
  36   21   22 ar
  37   21   43 1
  38   22   23 ar
  39   22   25 1
  40   23   24 ar
  41   23   44 1
  42   24   45 1
  43   27   28 1
  44   27   29 1
  45   27   30 1
  46   28   31 1
  47   28   46 1
  48   28   47 1
  49   29   48 1
  50   29   49 1
  51   29   50 1
  52   30   51 1
  53   30   52 1
  54   30   53 1
  55   31   32 1
  56   32   54 1
  57   32   55 1
  58   32   56 1

#	End of record

