#	Name: ASD04640031
#	Creating user name:	WinNT
#	Creation time:	15. 06. 2019 20:52

#	Modifying user name:	WinNT
#	Modification time:	15. 06. 2019 20:52

#	Program:	/corina/corina34_cracker 3.40 0067  02.08.2006

@<TRIPOS>MOLECULE
ASD04640031
  55   59    0    0    0
SMALL
NO_CHARGES


@<TRIPOS>ATOM
   1 C1            -0.0184     1.5023     0.0103 C.ar    
   2 C2             0.0021    -0.0041     0.0020 C.3     
   3 N3             1.3153    -0.4974    -0.4245 N.3     
   4 C4             2.3782     0.1208     0.3840 C.3     
   5 C5             2.5018     1.5903    -0.0193 C.3     
   6 C6             0.4782    -4.0974    -1.2810 C.3     
   7 C7            -0.5033    -4.8945    -2.1426 C.3     
   8 C8             0.9802    -4.8509    -2.5144 C.3     
   9 C9            -1.0488    -6.2023    -1.5656 C.3     
  10 N10           -2.0546    -6.7556    -2.4758 N.am    
  11 C11           -2.6754    -7.9125    -2.1713 C.2     
  12 C12           -3.6848    -8.4678    -3.0848 C.2     
  13 O13           -2.4005    -8.4973    -1.1406 O.2     
  14 C14            1.1444     2.2464     0.0032 C.ar    
  15 C15            1.0831     3.6330     0.0157 C.ar    
  16 C16           -0.1328     4.2804     0.0331 C.ar    
  17 C17           -1.3129     3.5344     0.0380 C.ar    
  18 C18           -1.2459     2.1416     0.0313 C.ar    
  19 C19           -2.5834     4.1949     0.0551 C.1     
  20 N20           -3.5912     4.7189     0.0686 N.1     
  21 C21           -4.3796    -9.6185    -2.8857 C.2     
  22 N22           -4.0829    -7.8996    -4.2803 N.pl3   
  23 C23           -5.2439    -9.7929    -3.9922 C.ar    
  24 C24           -6.1824   -10.7735    -4.3423 C.ar    
  25 C25           -5.0386    -8.6980    -4.8560 C.ar    
  26 N26           -5.7324    -8.6075    -5.9841 N.ar    
  27 C27           -6.6144    -9.5225    -6.3252 C.ar    
  28 C28           -6.8637   -10.6261    -5.5221 C.ar    
  29 C29            1.3783    -1.9629    -0.3449 C.3     
  30 C30            0.4125    -2.5710    -1.3639 C.3     
  31 H31           -0.2120    -0.3723     1.0054 H       
  32 H32           -0.7604    -0.3704    -0.6853 H       
  33 H33            2.1215     0.0515     1.4411 H       
  34 H34            3.3230    -0.3903     0.1993 H       
  35 H35            3.1630     2.1029     0.6794 H       
  36 H36            2.9188     1.6559    -1.0242 H       
  37 H37            0.7352    -4.5047    -0.3032 H       
  38 H38           -1.1960    -4.3315    -2.7681 H       
  39 H39            1.2637    -4.2592    -3.3848 H       
  40 H40            1.5675    -5.7539    -2.3479 H       
  41 H41           -0.2332    -6.9159    -1.4483 H       
  42 H42           -1.5047    -6.0088    -0.5946 H       
  43 H43           -2.2738    -6.2893    -3.2977 H       
  44 H44            1.9965     4.2094     0.0120 H       
  45 H45           -0.1729     5.3596     0.0433 H       
  46 H46           -2.1555     1.5594     0.0348 H       
  47 H47           -4.2883   -10.2801    -2.0370 H       
  48 H48           -3.7422    -7.0708    -4.6517 H       
  49 H49           -6.3635   -11.6224    -3.6998 H       
  50 H50           -7.1579    -9.4112    -7.2518 H       
  51 H51           -7.5940   -11.3626    -5.8230 H       
  52 H52            2.3932    -2.2953    -0.5630 H       
  53 H53            1.0982    -2.2847     0.6581 H       
  54 H54            0.6926    -2.2492    -2.3670 H       
  55 H55           -0.6024    -2.2386    -1.1458 H       
@<TRIPOS>BOND
   1    1    2 1
   2    1   14 ar
   3    1   18 ar
   4    2    3 1
   5    2   31 1
   6    2   32 1
   7    3    4 1
   8    3   29 1
   9    4    5 1
  10    4   33 1
  11    4   34 1
  12    5   14 1
  13    5   35 1
  14    5   36 1
  15    6    7 1
  16    6    8 1
  17    6   30 1
  18    6   37 1
  19    7    9 1
  20    7    8 1
  21    7   38 1
  22    8   39 1
  23    8   40 1
  24    9   10 1
  25    9   41 1
  26    9   42 1
  27   10   11 am
  28   10   43 1
  29   11   12 1
  30   11   13 2
  31   12   22 1
  32   12   21 2
  33   14   15 ar
  34   15   16 ar
  35   15   44 1
  36   16   17 ar
  37   16   45 1
  38   17   18 ar
  39   17   19 1
  40   18   46 1
  41   19   20 3
  42   21   23 1
  43   21   47 1
  44   22   25 1
  45   22   48 1
  46   23   25 ar
  47   23   24 ar
  48   24   28 ar
  49   24   49 1
  50   25   26 ar
  51   26   27 ar
  52   27   28 ar
  53   27   50 1
  54   28   51 1
  55   29   30 1
  56   29   52 1
  57   29   53 1
  58   30   54 1
  59   30   55 1

#	End of record

