#	Name: ASD04880020
#	Creating user name:	WinNT
#	Creation time:	15. 06. 2019 20:52

#	Modifying user name:	WinNT
#	Modification time:	15. 06. 2019 20:52

#	Program:	/corina/corina34_cracker 3.40 0067  02.08.2006

@<TRIPOS>MOLECULE
ASD04880020
  34   36    0    0    0
SMALL
NO_CHARGES


@<TRIPOS>ATOM
   1 C1            -0.0144     1.2118     0.0087 C.2     
   2 O2             0.0436    -0.0026     0.0315 O.2     
   3 N3             1.1185     1.9396    -0.0483 N.am    
   4 N4             1.1861     3.3240    -0.1910 N.2     
   5 C5             2.3862     3.7923    -0.2195 C.2     
   6 C6             3.3749     2.6562    -0.0848 C.3     
   7 C7             2.4860     1.4027     0.0365 C.3     
   8 C8             2.7407     5.2160    -0.3619 C.ar    
   9 C9             1.7358     6.1801    -0.4790 C.ar    
  10 C10            2.0719     7.5099    -0.6115 C.ar    
  11 C11            3.4070     7.8927    -0.6288 C.ar    
  12 C12            4.4092     6.9379    -0.5127 C.ar    
  13 C13            4.0825     5.6064    -0.3745 C.ar    
  14 O14            3.7336     9.2047    -0.7600 O.3     
  15 C15           -1.3275     1.8895     0.0373 C.ar    
  16 C16           -2.5036     1.1431    -0.0542 C.ar    
  17 C17           -3.7276     1.7832    -0.0263 C.ar    
  18 C18           -3.7879     3.1628     0.0922 C.ar    
  19 C19           -2.6252     3.9063     0.1827 C.ar    
  20 C20           -1.3968     3.2781     0.1618 C.ar    
  21 F21           -4.8674     1.0634    -0.1151 F       
  22 H22            4.0097     2.5950    -0.9687 H       
  23 H23            3.9797     2.7802     0.8136 H       
  24 H24            2.6453     0.9085     0.9949 H       
  25 H25            2.6801     0.7158    -0.7873 H       
  26 H26            0.6975     5.8834    -0.4660 H       
  27 H27            1.2960     8.2557    -0.7024 H       
  28 H28            5.4459     7.2401    -0.5266 H       
  29 H29            4.8623     4.8652    -0.2798 H       
  30 H30            3.8133     9.6762     0.0805 H       
  31 H31           -2.4567     0.0681    -0.1469 H       
  32 H32           -4.7467     3.6594     0.1137 H       
  33 H33           -2.6789     4.9810     0.2746 H       
  34 H34           -0.4903     3.8602     0.2375 H       
@<TRIPOS>BOND
   1    1    2 2
   2    1    3 am
   3    1   15 1
   4    3    4 1
   5    3    7 1
   6    4    5 2
   7    5    6 1
   8    5    8 1
   9    6    7 1
  10    6   22 1
  11    6   23 1
  12    7   24 1
  13    7   25 1
  14    8    9 ar
  15    8   13 ar
  16    9   10 ar
  17    9   26 1
  18   10   11 ar
  19   10   27 1
  20   11   12 ar
  21   11   14 1
  22   12   13 ar
  23   12   28 1
  24   13   29 1
  25   14   30 1
  26   15   16 ar
  27   15   20 ar
  28   16   17 ar
  29   16   31 1
  30   17   18 ar
  31   17   21 1
  32   18   19 ar
  33   18   32 1
  34   19   20 ar
  35   19   33 1
  36   20   34 1

#	End of record

