#	Name: ASD03330800
#	Creating user name:	WinNT
#	Creation time:	15. 06. 2019 20:38

#	Modifying user name:	WinNT
#	Modification time:	15. 06. 2019 20:38

#	Program:	/corina/corina34_cracker 3.40 0067  02.08.2006

@<TRIPOS>MOLECULE
ASD03330800
  60   62    0    0    0
SMALL
NO_CHARGES


@<TRIPOS>ATOM
   1 C1             0.7798     1.4286     0.2190 C.2     
   2 N2             0.6852     0.0728     0.2674 N.pl3   
   3 C3             2.0969     1.7324     0.0548 C.2     
   4 N4             2.7831     0.5701    -0.0121 N.2     
   5 C5             1.9431    -0.4313     0.1088 C.2     
   6 C6             2.3002    -1.8658     0.0779 C.ar    
   7 C7             2.6712     3.0864    -0.0347 C.2     
   8 O8             1.9466     4.0605     0.0388 O.2     
   9 C9             4.5706     4.5917    -0.2872 C.3     
  10 N10            3.9996     3.2455    -0.1982 N.am    
  11 C11            5.8896     4.5361    -1.0605 C.3     
  12 C12            4.8237     5.1228     1.1002 C.2     
  13 O13            4.5537     4.4437     2.0681 O.2     
  14 C14           -0.5521    -0.6860     0.4691 C.3     
  15 C15           -1.6386    -0.1307    -0.4572 C.3     
  16 C16           -2.3656     1.0194     0.2321 C.3     
  17 N17           -1.4556     1.7781     1.0924 N.3     
  18 C18           -0.3725     2.3950     0.3123 C.3     
  19 C19            1.8059    -2.7319     1.0544 C.ar    
  20 C20            2.1425    -4.0703     1.0208 C.ar    
  21 C21           -2.1857     2.7883     1.8699 C.3     
  22 N22            5.3501     6.3525     1.2654 N.am    
  23 C23            2.9712    -4.5555     0.0181 C.ar    
  24 C24            5.6116     4.1574    -2.5166 C.3     
  25 C25            3.1291    -2.3602    -0.9323 C.ar    
  26 C26            3.4645    -3.7009    -0.9531 C.ar    
  27 C27            4.5837     5.1244    -3.1077 C.3     
  28 C28            6.9101     4.2387    -3.3216 C.3     
  29 C29            5.0628     2.7305    -2.5766 C.3     
  30 F30            3.2978    -5.8661    -0.0097 F       
  31 F31            3.6066    -1.5283    -1.8838 F       
  32 F32            1.6650    -4.9095     1.9658 F       
  33 H33            3.8727     5.2488    -0.8061 H       
  34 H34            4.5775     2.4687    -0.2568 H       
  35 H35            6.3731     5.5123    -1.0250 H       
  36 H36            6.5439     3.7899    -0.6097 H       
  37 H37           -0.3773    -1.7365     0.2367 H       
  38 H38           -0.8736    -0.5899     1.5061 H       
  39 H39           -1.1801     0.2303    -1.3779 H       
  40 H40           -2.3516    -0.9204    -0.6938 H       
  41 H41           -2.7805     1.6851    -0.5248 H       
  42 H42           -3.1780     0.6173     0.8374 H       
  43 H43           -0.0425     3.3090     0.8061 H       
  44 H44           -0.7329     2.6301    -0.6892 H       
  45 H45            1.1615    -2.3556     1.8351 H       
  46 H46           -2.9301     2.2966     2.4961 H       
  47 H47           -1.4860     3.3372     2.5002 H       
  48 H48           -2.6826     3.4805     1.1902 H       
  49 H49            5.5661     6.8956     0.4913 H       
  50 H50            5.5130     6.6943     2.1584 H       
  51 H51            4.1051    -4.0843    -1.7335 H       
  52 H52            4.9747     6.1410    -3.0649 H       
  53 H53            4.3856     4.8547    -4.1451 H       
  54 H54            3.6586     5.0665    -2.5342 H       
  55 H55            7.6424     3.5498    -2.9005 H       
  56 H56            6.7120     3.9689    -4.3590 H       
  57 H57            7.3011     5.2552    -3.2789 H       
  58 H58            4.0631     2.7071    -2.1428 H       
  59 H59            5.0159     2.4026    -3.6151 H       
  60 H60            5.7183     2.0652    -2.0148 H       
@<TRIPOS>BOND
   1    1    2 1
   2    1    3 2
   3    1   18 1
   4    2   14 1
   5    2    5 1
   6    3    4 1
   7    3    7 1
   8    4    5 2
   9    5    6 1
  10    6   25 ar
  11    6   19 ar
  12    7    8 2
  13    7   10 am
  14    9   10 1
  15    9   11 1
  16    9   12 1
  17    9   33 1
  18   10   34 1
  19   11   24 1
  20   11   35 1
  21   11   36 1
  22   12   13 2
  23   12   22 am
  24   14   15 1
  25   14   37 1
  26   14   38 1
  27   15   16 1
  28   15   39 1
  29   15   40 1
  30   16   17 1
  31   16   41 1
  32   16   42 1
  33   17   18 1
  34   17   21 1
  35   18   43 1
  36   18   44 1
  37   19   20 ar
  38   19   45 1
  39   20   32 1
  40   20   23 ar
  41   21   46 1
  42   21   47 1
  43   21   48 1
  44   22   49 1
  45   22   50 1
  46   23   30 1
  47   23   26 ar
  48   24   27 1
  49   24   28 1
  50   24   29 1
  51   25   26 ar
  52   25   31 1
  53   26   51 1
  54   27   52 1
  55   27   53 1
  56   27   54 1
  57   28   55 1
  58   28   56 1
  59   28   57 1
  60   29   58 1
  61   29   59 1
  62   29   60 1

#	End of record

