#	Name: ASD00120013
#	Creating user name:	WinNT
#	Creation time:	15. 06. 2019 18:31

#	Modifying user name:	WinNT
#	Modification time:	15. 06. 2019 18:31

#	Program:	/corina/corina34_cracker 3.40 0067  02.08.2006

@<TRIPOS>MOLECULE
ASD00120013
  55   58    0    0    0
SMALL
NO_CHARGES


@<TRIPOS>ATOM
   1 O1             0.3772    -0.0864    -0.6787 O.2     
   2 C2             0.2085     1.0423    -0.2688 C.2     
   3 C3             1.3667     2.0049    -0.2133 C.3     
   4 N4             2.6051     1.2987    -0.5508 N.pl3   
   5 C5             2.8729     0.6599    -1.7100 C.2     
   6 N6             4.0733     0.1528    -1.6407 N.2     
   7 C7             4.6094     0.4466    -0.4469 C.2     
   8 C8             3.7092     1.1682     0.2478 C.2     
   9 S9             6.2130    -0.0232     0.1120 S.o2    
  10 O10            6.0957    -0.0538     1.5278 O.2     
  11 O11            6.5092    -1.2020    -0.6242 O.2     
  12 C12            7.2910     1.3399    -0.4081 C.3     
  13 C13            8.7942     1.1817    -0.1709 C.3     
  14 C14            8.2295     1.0869    -1.5897 C.3     
  15 C15            1.1366     3.1381    -1.2151 C.3     
  16 C16            2.2935     4.1358    -1.1312 C.3     
  17 C17            2.1599     5.1709    -2.2523 C.3     
  18 C18            3.2759     6.2096    -2.1130 C.3     
  19 O19            3.1994     6.8189    -0.8227 O.3     
  20 C20            3.3651     5.9061     0.2643 C.3     
  21 C21            2.2527     4.8553     0.2205 C.3     
  22 N22           -1.0161     1.4377     0.1319 N.am    
  23 C23           -2.0890     0.5579     0.0580 C.ar    
  24 C24           -1.8494    -0.8116    -0.0218 C.ar    
  25 C25           -2.9187    -1.6801    -0.0949 C.ar    
  26 C26           -4.2151    -1.1434    -0.0859 C.ar    
  27 C27           -4.3743     0.2415    -0.0037 C.ar    
  28 N28           -3.3261     1.0337     0.0698 N.ar    
  29 C29           -5.3921    -2.0287    -0.1625 C.2     
  30 O30           -5.2432    -3.2325    -0.2342 O.2     
  31 O31           -6.6326    -1.5027    -0.1531 O.3     
  32 H32            1.4470     2.4191     0.7918 H       
  33 H33            2.2041     0.5812    -2.5544 H       
  34 H34            3.8320     1.5620     1.2459 H       
  35 H35            6.8678     2.3391    -0.3061 H       
  36 H36            9.3600     2.0770     0.0869 H       
  37 H37            9.1354     0.2586     0.2977 H       
  38 H38            8.1992     0.1015    -2.0545 H       
  39 H39            8.4238     1.9199    -2.2654 H       
  40 H40            1.0839     2.7268    -2.2232 H       
  41 H41            0.2011     3.6460    -0.9806 H       
  42 H42            3.2403     3.6058    -1.2352 H       
  43 H43            2.2434     4.6739    -3.2188 H       
  44 H44            1.1911     5.6650    -2.1783 H       
  45 H45            4.2435     5.7210    -2.2275 H       
  46 H46            3.1604     6.9726    -2.8828 H       
  47 H47            4.3339     5.4136     0.1809 H       
  48 H48            3.3139     6.4506     1.2072 H       
  49 H49            1.2858     5.3430     0.3445 H       
  50 H50            2.4026     4.1325     1.0225 H       
  51 H51           -1.1485     2.3365     0.4718 H       
  52 H52           -0.8377    -1.1895    -0.0267 H       
  53 H53           -2.7619    -2.7468    -0.1580 H       
  54 H54           -5.3672     0.6662     0.0041 H       
  55 H55           -7.3728    -2.1227    -0.2052 H       
@<TRIPOS>BOND
   1    1    2 2
   2    2    3 1
   3    2   22 am
   4    3    4 1
   5    3   15 1
   6    3   32 1
   7    4    5 1
   8    4    8 1
   9    5    6 2
  10    5   33 1
  11    6    7 1
  12    7    8 2
  13    7    9 1
  14    8   34 1
  15    9   10 2
  16    9   11 2
  17    9   12 1
  18   12   13 1
  19   12   14 1
  20   12   35 1
  21   13   14 1
  22   13   36 1
  23   13   37 1
  24   14   38 1
  25   14   39 1
  26   15   16 1
  27   15   40 1
  28   15   41 1
  29   16   17 1
  30   16   21 1
  31   16   42 1
  32   17   18 1
  33   17   43 1
  34   17   44 1
  35   18   19 1
  36   18   45 1
  37   18   46 1
  38   19   20 1
  39   20   21 1
  40   20   47 1
  41   20   48 1
  42   21   49 1
  43   21   50 1
  44   22   23 1
  45   22   51 1
  46   23   24 ar
  47   23   28 ar
  48   24   25 ar
  49   24   52 1
  50   25   26 ar
  51   25   53 1
  52   26   27 ar
  53   26   29 1
  54   27   28 ar
  55   27   54 1
  56   29   30 2
  57   29   31 1
  58   31   55 1

#	End of record

