#	Name: ASD04560073
#	Creating user name:	WinNT
#	Creation time:	15. 06. 2019 20:49

#	Modifying user name:	WinNT
#	Modification time:	15. 06. 2019 20:49

#	Program:	/corina/corina34_cracker 3.40 0067  02.08.2006

@<TRIPOS>MOLECULE
ASD04560073
  52   55    0    0    0
SMALL
NO_CHARGES


@<TRIPOS>ATOM
   1 C1            -0.0173     1.3666     0.0244 C.ar    
   2 C2             0.0010    -0.0041     0.0240 C.ar    
   3 C3             1.2157    -0.6859     0.0136 C.ar    
   4 C4             2.4151     0.0225     0.0034 C.ar    
   5 C5             2.4031     1.3933     0.0042 C.ar    
   6 C6             1.1852     2.0805     0.0143 C.ar    
   7 C7             1.1690     3.5549     0.0146 C.2     
   8 O8             2.2154     4.1746     0.0062 O.2     
   9 N9            -0.0055     4.2159     0.0243 N.am    
  10 C10           -0.0226     5.6108     0.1376 C.ar    
  11 C11           -0.9920     6.3506    -0.5268 C.ar    
  12 C12            0.9074     7.6331     1.0301 C.ar    
  13 C13            0.9263     6.2566     0.9193 C.ar    
  14 S14            1.2351    -2.4478     0.0137 S.3     
  15 C15           -1.0073     7.7269    -0.4133 C.ar    
  16 C16           -0.0567     8.3693     0.3621 C.ar    
  17 C17            3.0069    -2.8364    -0.0017 C.3     
  18 C18            3.1932    -4.3318    -0.0030 C.2     
  19 C19            3.2860    -5.1093    -1.0871 C.2     
  20 S20            3.3340    -5.3569     1.4239 S.3     
  21 C21            3.5017    -6.7704     0.3858 C.2     
  22 N22            3.4475    -6.3923    -0.8592 N.2     
  23 F23           -0.0734     9.7157     0.4718 F       
  24 C24            3.2096    -4.5479    -2.4835 C.3     
  25 C25            3.6807    -8.1618     0.8530 C.ar    
  26 C26            3.8025    -9.2009    -0.0705 C.ar    
  27 C27            3.7343    -8.4407     2.2193 C.ar    
  28 C28            3.9015    -9.7412     2.6487 C.ar    
  29 C29            4.0159   -10.7676     1.7281 C.ar    
  30 C30            3.9693   -10.4970     0.3721 C.ar    
  31 C31            4.1982   -12.1857     2.2043 C.3     
  32 F32            2.9458   -12.7867     2.3698 F       
  33 F33            4.9387   -12.9035     1.2589 F       
  34 F34            4.8795   -12.1833     3.4262 F       
  35 H35           -0.9594     1.8947     0.0280 H       
  36 H36           -0.9274    -0.5560     0.0322 H       
  37 H37            3.3553    -0.5088    -0.0047 H       
  38 H38            3.3333     1.9420    -0.0029 H       
  39 H39           -0.8390     3.7249    -0.0472 H       
  40 H40           -1.7331     5.8500    -1.1322 H       
  41 H41            1.6452     8.1357     1.6379 H       
  42 H42            1.6784     5.6828     1.4404 H       
  43 H43           -1.7610     8.3026    -0.9299 H       
  44 H44            3.4641    -2.4125    -0.8957 H       
  45 H45            3.4796    -2.4122     0.8841 H       
  46 H46            4.2108    -4.2846    -2.8246 H       
  47 H47            2.7825    -5.2949    -3.1526 H       
  48 H48            2.5801    -3.6580    -2.4833 H       
  49 H49            3.7660    -8.9910    -1.1292 H       
  50 H50            3.6455    -7.6404     2.9389 H       
  51 H51            3.9434    -9.9584     3.7058 H       
  52 H52            4.0588   -11.3027    -0.3416 H       
@<TRIPOS>BOND
   1    1    2 ar
   2    1    6 ar
   3    1   35 1
   4    2    3 ar
   5    2   36 1
   6    3    4 ar
   7    3   14 1
   8    4    5 ar
   9    4   37 1
  10    5    6 ar
  11    5   38 1
  12    6    7 1
  13    7    8 2
  14    7    9 am
  15    9   10 1
  16    9   39 1
  17   10   11 ar
  18   10   13 ar
  19   11   15 ar
  20   11   40 1
  21   12   13 ar
  22   12   16 ar
  23   12   41 1
  24   13   42 1
  25   14   17 1
  26   15   16 ar
  27   15   43 1
  28   16   23 1
  29   17   18 1
  30   17   44 1
  31   17   45 1
  32   18   20 1
  33   18   19 2
  34   19   24 1
  35   19   22 1
  36   20   21 1
  37   21   22 2
  38   21   25 1
  39   24   46 1
  40   24   47 1
  41   24   48 1
  42   25   26 ar
  43   25   27 ar
  44   26   30 ar
  45   26   49 1
  46   27   28 ar
  47   27   50 1
  48   28   29 ar
  49   28   51 1
  50   29   30 ar
  51   29   31 1
  52   30   52 1
  53   31   32 1
  54   31   33 1
  55   31   34 1

#	End of record

