#	Name: ASD02560010
#	Creating user name:	WinNT
#	Creation time:	15. 06. 2019 20:24

#	Modifying user name:	WinNT
#	Modification time:	15. 06. 2019 20:24

#	Program:	/corina/corina34_cracker 3.40 0067  02.08.2006

@<TRIPOS>MOLECULE
ASD02560010
  32   33    0    0    0
SMALL
NO_CHARGES


@<TRIPOS>ATOM
   1 C1            -0.0162     1.3460     0.0094 C.2     
   2 C2             0.0021    -0.0041     0.0020 C.2     
   3 N3            -1.1773    -0.6978     0.0095 N.am    
   4 C4            -2.3549    -0.0473     0.0242 C.2     
   5 N5            -2.4022     1.2978     0.0314 N.am    
   6 C6            -1.2622     2.0179     0.0309 C.2     
   7 O7            -1.3041     3.2350     0.0374 O.2     
   8 C8             1.2725     2.1272     0.0013 C.3     
   9 O9            -3.3911    -0.6835     0.0306 O.2     
  10 C10           -1.1576    -2.1627     0.0010 C.3     
  11 O11            0.1961    -2.6305     0.0193 O.3     
  12 C12            0.4355    -3.3931     1.2129 C.3     
  13 C13           -0.9581    -3.9128     1.6473 C.3     
  14 C14           -1.8552    -2.7032     1.2676 C.3     
  15 C15            1.3706    -4.5668     0.9146 C.3     
  16 O16            2.6635    -4.0687     0.5650 O.3     
  17 N17           -1.3355    -5.1085     0.8895 N.2     
  18 N18           -2.2822    -5.6589     1.1430 N.1     
  19 N19           -3.2288    -6.2093     1.3964 N.pl3   
  20 H20            0.9431    -0.5339    -0.0101 H       
  21 H21           -3.2598     1.7510     0.0417 H       
  22 H22            1.5734     2.3210    -1.0282 H       
  23 H23            1.1268     3.0738     0.5217 H       
  24 H24            2.0494     1.5517     0.5047 H       
  25 H25           -1.6651    -2.5340    -0.8894 H       
  26 H26            0.8610    -2.7572     1.9892 H       
  27 H27           -0.9894    -4.1037     2.7200 H       
  28 H28           -1.8538    -1.9552     2.0605 H       
  29 H29           -2.8707    -3.0291     1.0421 H       
  30 H30            1.4519    -5.2002     1.7979 H       
  31 H31            0.9693    -5.1494     0.0854 H       
  32 H32            3.3095    -4.7592     0.3625 H       
@<TRIPOS>BOND
   1    1    2 2
   2    1    8 1
   3    1    6 1
   4    2    3 1
   5    2   20 1
   6    3    4 am
   7    3   10 1
   8    4    5 am
   9    4    9 2
  10    5    6 am
  11    5   21 1
  12    6    7 2
  13    8   22 1
  14    8   23 1
  15    8   24 1
  16   10   11 1
  17   10   14 1
  18   10   25 1
  19   11   12 1
  20   12   13 1
  21   12   15 1
  22   12   26 1
  23   13   14 1
  24   13   17 1
  25   13   27 1
  26   14   28 1
  27   14   29 1
  28   15   16 1
  29   15   30 1
  30   15   31 1
  31   16   32 1
  32   17   18 2
  33   18   19 2

#	End of record

