#	Name: ASD01870189
#	Creating user name:	WinNT
#	Creation time:	15. 06. 2019 19:38

#	Modifying user name:	WinNT
#	Modification time:	15. 06. 2019 19:38

#	Program:	/corina/corina34_cracker 3.40 0067  02.08.2006

@<TRIPOS>MOLECULE
ASD01870189
  53   57    0    0    0
SMALL
NO_CHARGES


@<TRIPOS>ATOM
   1 Cl1            1.2238    -2.9201    -6.1566 Cl      
   2 C2             0.1965     1.2529     1.2439 C.ar    
   3 C3             0.1658    -0.1085     0.9497 C.ar    
   4 C4             1.2550    -0.7382     0.4284 C.ar    
   5 C5             2.4291    -0.0089     0.1814 C.ar    
   6 C6             2.4609     1.3782     0.4804 C.ar    
   7 C7             1.3163     1.9930     1.0183 C.ar    
   8 C8             3.5718    -0.6284    -0.3568 C.ar    
   9 C9             4.6958     0.0952    -0.5882 C.ar    
  10 C10            4.7432     1.4726    -0.2963 C.ar    
  11 C11            3.6304     2.1057     0.2340 C.ar    
  12 C12            5.8177     2.4734    -0.4478 C.2     
  13 N13            5.3952     3.6790    -0.0301 N.am    
  14 C14            4.0064     3.5532     0.4269 C.3     
  15 C15            6.1876     4.9112    -0.0312 C.3     
  16 C16            5.2662     6.1098    -0.2665 C.3     
  17 C17            4.2212     6.1764     0.8490 C.3     
  18 C18            4.9250     6.3314     2.1986 C.3     
  19 C19            5.8463     5.1328     2.4339 C.3     
  20 C20            6.8914     5.0661     1.3184 C.3     
  21 C21            3.5474    -2.1008    -0.6769 C.3     
  22 C22            2.9646    -2.3065    -2.0514 C.ar    
  23 C23            3.7923    -2.3152    -3.1586 C.ar    
  24 C24            3.2584    -2.5038    -4.4194 C.ar    
  25 C25            1.8953    -2.6838    -4.5733 C.ar    
  26 C26            1.0674    -2.6750    -3.4648 C.ar    
  27 C27            1.6032    -2.4919    -2.2039 C.ar    
  28 O28            6.9269     2.2403    -0.8874 O.2     
  29 O29            4.6088     5.9651    -1.5270 O.3     
  30 H30           -0.6825     1.7289     1.6529 H       
  31 H31           -0.7353    -0.6732     1.1382 H       
  32 H32            1.2160    -1.7944     0.2062 H       
  33 H33            1.3255     3.0477     1.2506 H       
  34 H34            5.5667    -0.3917    -1.0016 H       
  35 H35            3.3560     4.1923    -0.1703 H       
  36 H36            3.9327     3.8225     1.4805 H       
  37 H37            6.9321     4.8637    -0.8259 H       
  38 H38            5.8558     7.0266    -0.2673 H       
  39 H39            3.5648     7.0304     0.6814 H       
  40 H40            3.6316     5.2596     0.8498 H       
  41 H41            5.5145     7.2482     2.1978 H       
  42 H42            4.1805     6.3789     2.9933 H       
  43 H43            6.3478     5.2431     3.3954 H       
  44 H44            5.2568     4.2160     2.4347 H       
  45 H45            7.5478     4.2122     1.4860 H       
  46 H46            7.4809     5.9829     1.3176 H       
  47 H47            4.5631    -2.4953    -0.6502 H       
  48 H48            2.9355    -2.6225     0.0590 H       
  49 H49            4.8563    -2.1743    -3.0384 H       
  50 H50            3.9050    -2.5102    -5.2844 H       
  51 H51            0.0033    -2.8155    -3.5843 H       
  52 H52            0.9571    -2.4850    -1.3385 H       
  53 H53            4.0073     6.6909    -1.7426 H       
@<TRIPOS>BOND
   1    1   25 1
   2    2    3 ar
   3    2    7 ar
   4    2   30 1
   5    3    4 ar
   6    3   31 1
   7    4    5 ar
   8    4   32 1
   9    5    6 ar
  10    5    8 ar
  11    6    7 ar
  12    6   11 ar
  13    7   33 1
  14    8    9 ar
  15    8   21 1
  16    9   10 ar
  17    9   34 1
  18   10   11 ar
  19   10   12 1
  20   11   14 1
  21   12   13 am
  22   12   28 2
  23   13   14 1
  24   13   15 1
  25   14   35 1
  26   14   36 1
  27   15   16 1
  28   15   20 1
  29   15   37 1
  30   16   17 1
  31   16   29 1
  32   16   38 1
  33   17   18 1
  34   17   39 1
  35   17   40 1
  36   18   19 1
  37   18   41 1
  38   18   42 1
  39   19   20 1
  40   19   43 1
  41   19   44 1
  42   20   45 1
  43   20   46 1
  44   21   22 1
  45   21   47 1
  46   21   48 1
  47   22   23 ar
  48   22   27 ar
  49   23   24 ar
  50   23   49 1
  51   24   25 ar
  52   24   50 1
  53   25   26 ar
  54   26   27 ar
  55   26   51 1
  56   27   52 1
  57   29   53 1

#	End of record

