#	Name: ASD01811506
#	Creating user name:	WinNT
#	Creation time:	15. 06. 2019 19:26

#	Modifying user name:	WinNT
#	Modification time:	15. 06. 2019 19:26

#	Program:	/corina/corina34_cracker 3.40 0067  02.08.2006

@<TRIPOS>MOLECULE
ASD01811506
  74   78    0    0    0
SMALL
NO_CHARGES


@<TRIPOS>ATOM
   1 C1            -8.4433     3.8844    -4.7573 C.1     
   2 C2            -7.4335     4.5939    -4.0310 C.ar    
   3 C3            -6.2156     3.9766    -3.7387 C.ar    
   4 C4            -5.2472     4.6659    -3.0386 C.ar    
   5 C5            -5.4807     5.9658    -2.6260 C.ar    
   6 C6            -6.6854     6.5833    -2.9119 C.ar    
   7 C7            -7.6600     5.9080    -3.6171 C.ar    
   8 N8            -9.2444     3.3216    -5.3334 N.1     
   9 N9            -3.3772     8.9667    -0.5070 N.am    
  10 C10           -2.9123     8.7052    -1.8760 C.3     
  11 C11           -4.0168     7.9675    -2.6393 C.3     
  12 C12           -4.4181     6.7122    -1.8613 C.3     
  13 C13           -4.9644     7.1134    -0.4891 C.3     
  14 C14           -3.8707     7.8414     0.2986 C.3     
  15 C15           -3.3464    10.2142     0.0021 C.2     
  16 C16           -3.9005    10.4776     1.3475 C.ar    
  17 C17           -4.8967    11.4418     1.5177 C.ar    
  18 C18           -5.4150    11.6888     2.7731 C.ar    
  19 C19           -4.9531    10.9854     3.8683 C.ar    
  20 C20           -3.9578    10.0190     3.7121 C.ar    
  21 C21           -3.4344     9.7606     2.4472 C.ar    
  22 O22           -2.8630    11.1228    -0.6446 O.2     
  23 C23           -5.5245    11.2621     5.2350 C.3     
  24 C24           -5.4064    12.2145     0.3285 C.3     
  25 N25           -1.1435     7.8055     9.0013 N.3     
  26 C26           -0.4377     7.6780     7.7441 C.3     
  27 C27           -1.2964     6.9283     6.7114 C.3     
  28 C28           -2.3011     7.9272     6.1658 C.2     
  29 C29           -3.2637     8.5145     6.8982 C.2     
  30 C30           -3.4774     8.2643     8.3820 C.3     
  31 C31           -2.2185     8.7686     9.1059 C.3     
  32 C32           -3.4640     9.2670     4.8864 C.2     
  33 N33           -2.4116     8.3932     4.8925 N.pl3   
  34 N34           -3.9631     9.3248     6.1047 N.2     
  35 C35           -0.2031     7.9425    10.1215 C.3     
  36 C36            0.6826     6.6974    10.1989 C.3     
  37 C37            0.6723     9.1784     9.9042 C.3     
  38 H38           -6.0323     2.9618    -4.0595 H       
  39 H39           -4.3048     4.1897    -2.8118 H       
  40 H40           -6.8612     7.5980    -2.5866 H       
  41 H41           -8.5980     6.3929    -3.8438 H       
  42 H42           -2.6922     9.6495    -2.3738 H       
  43 H43           -2.0144     8.0880    -1.8453 H       
  44 H44           -4.8827     8.6206    -2.7478 H       
  45 H45           -3.6497     7.6825    -3.6253 H       
  46 H46           -3.5462     6.0711    -1.7315 H       
  47 H47           -5.8214     7.7746    -0.6178 H       
  48 H48           -5.2718     6.2205     0.0553 H       
  49 H49           -3.0509     7.1537     0.5066 H       
  50 H50           -4.2829     8.2159     1.2356 H       
  51 H51           -6.1849    12.4356     2.8995 H       
  52 H52           -2.6674     9.0109     2.3204 H       
  53 H53           -6.3097    10.5384     5.4539 H       
  54 H54           -4.7353    11.1792     5.9823 H       
  55 H55           -5.9418    12.2688     5.2574 H       
  56 H56           -6.1810    11.6365    -0.1755 H       
  57 H57           -5.8222    13.1647     0.6636 H       
  58 H58           -4.5846    12.4012    -0.3628 H       
  59 H59           -0.2027     8.6715     7.3621 H       
  60 H60            0.4893     7.1283     7.9070 H       
  61 H61           -0.6665     6.5550     5.9040 H       
  62 H62           -1.8179     6.1002     7.1915 H       
  63 H63           -4.3523     8.8134     8.7299 H       
  64 H64           -3.6092     7.1978     8.5644 H       
  65 H65           -2.4515     8.9329    10.1580 H       
  66 H66           -1.9009     9.7104     8.6585 H       
  67 H67           -1.8530     8.1532     4.1368 H       
  68 H68           -0.7600     8.0508    11.0522 H       
  69 H69            1.3404     6.6648     9.3304 H       
  70 H70            1.2829     6.7345    11.1080 H       
  71 H71            0.0557     5.8059    10.2136 H       
  72 H72            0.0413    10.0655     9.8490 H       
  73 H73            1.3701     9.2801    10.7354 H       
  74 H74            1.2291     9.0702     8.9734 H       
@<TRIPOS>BOND
   1    1    2 1
   2    1    8 3
   3    2    3 ar
   4    2    7 ar
   5    3    4 ar
   6    3   38 1
   7    4    5 ar
   8    4   39 1
   9    5    6 ar
  10    5   12 1
  11    6    7 ar
  12    6   40 1
  13    7   41 1
  14    9   10 1
  15    9   14 1
  16    9   15 am
  17   10   11 1
  18   10   42 1
  19   10   43 1
  20   11   12 1
  21   11   44 1
  22   11   45 1
  23   12   13 1
  24   12   46 1
  25   13   14 1
  26   13   47 1
  27   13   48 1
  28   14   49 1
  29   14   50 1
  30   15   16 1
  31   15   22 2
  32   16   17 ar
  33   16   21 ar
  34   17   18 ar
  35   17   24 1
  36   18   19 ar
  37   18   51 1
  38   19   20 ar
  39   19   23 1
  40   20   21 ar
  41   20   32 1
  42   21   52 1
  43   23   53 1
  44   23   54 1
  45   23   55 1
  46   24   56 1
  47   24   57 1
  48   24   58 1
  49   25   26 1
  50   25   31 1
  51   25   35 1
  52   26   27 1
  53   26   59 1
  54   26   60 1
  55   27   28 1
  56   27   61 1
  57   27   62 1
  58   28   29 2
  59   28   33 1
  60   29   30 1
  61   29   34 1
  62   30   31 1
  63   30   63 1
  64   30   64 1
  65   31   65 1
  66   31   66 1
  67   32   33 1
  68   32   34 2
  69   33   67 1
  70   35   36 1
  71   35   37 1
  72   35   68 1
  73   36   69 1
  74   36   70 1
  75   36   71 1
  76   37   72 1
  77   37   73 1
  78   37   74 1

#	End of record

