#	Name: ASD07300289
#	Creating user name:	WinNT
#	Creation time:	15. 06. 2019 21:09

#	Modifying user name:	WinNT
#	Modification time:	15. 06. 2019 21:09

#	Program:	/corina/corina34_cracker 3.40 0067  02.08.2006

@<TRIPOS>MOLECULE
ASD07300289
  54   58    0    0    0
SMALL
NO_CHARGES


@<TRIPOS>ATOM
   1 C1            -0.8614     0.9878    -0.1291 C.ar    
   2 C2            -1.0248    -0.3827    -0.3526 C.ar    
   3 C3             0.0595    -1.2325    -0.1940 C.ar    
   4 C4             1.2784    -0.6791     0.1852 C.ar    
   5 C5             1.3663     0.6899     0.3896 C.ar    
   6 N6             0.3157     1.4714     0.2306 N.ar    
   7 C7            -2.9764     0.6146    -0.7002 C.2     
   8 N8            -2.1018     1.5779    -0.3559 N.am    
   9 N9            -2.3548    -0.5799    -0.7117 N.am    
  10 O10           -4.1501     0.7960    -0.9649 O.2     
  11 O11            2.3707    -1.4713     0.3540 O.3     
  12 C12            3.5852    -0.8272     0.7442 C.3     
  13 C13            4.6944    -1.8718     0.8836 C.3     
  14 F14            4.8826    -2.5187    -0.3425 F       
  15 F15            5.8834    -1.2412     1.2656 F       
  16 F16            4.3314    -2.8105     1.8553 F       
  17 C17           -2.3913     2.9458    -0.2440 C.ar    
  18 C18           -3.6758     3.4068    -0.4990 C.ar    
  19 C19           -3.9603     4.7535    -0.3887 C.ar    
  20 C20           -2.9627     5.6459    -0.0236 C.ar    
  21 C21           -1.6788     5.1857     0.2309 C.ar    
  22 C22           -1.3949     3.8384     0.1273 C.ar    
  23 O23           -3.2432     6.9718     0.0844 O.3     
  24 C24           -5.0015     8.6869     2.6100 C.ar    
  25 C25           -4.9172     7.3761     3.1128 C.ar    
  26 C26           -5.4908     7.0889     4.3542 C.ar    
  27 C27           -6.1196     8.1149     5.0358 C.ar    
  28 C28           -6.1623     9.3810     4.4762 C.ar    
  29 N29           -5.6146     9.6312     3.3039 N.ar    
  30 C30           -3.9194     7.3908     1.1784 C.2     
  31 N31           -4.3619     8.6654     1.3858 N.pl3   
  32 N32           -4.2419     6.6360     2.1966 N.2     
  33 C33           -4.1905     9.8015     0.4769 C.3     
  34 C34           -2.9739    -1.8668    -1.0389 C.3     
  35 C35           -3.5366    -2.5005     0.2349 C.3     
  36 H36           -0.0396    -2.2950    -0.3599 H       
  37 H37            2.3106     1.1232     0.6844 H       
  38 H38            3.8680    -0.0958    -0.0129 H       
  39 H39            3.4385    -0.3232     1.6994 H       
  40 H40           -4.4523     2.7123    -0.7839 H       
  41 H41           -4.9595     5.1122    -0.5871 H       
  42 H42           -0.9024     5.8809     0.5143 H       
  43 H43           -0.3967     3.4796     0.3304 H       
  44 H44           -5.4448     6.0931     4.7698 H       
  45 H45           -6.5745     7.9300     5.9978 H       
  46 H46           -6.6545    10.1796     5.0113 H       
  47 H47           -3.2594    10.3173     0.7116 H       
  48 H48           -4.1576     9.4422    -0.5517 H       
  49 H49           -5.0271    10.4903     0.5945 H       
  50 H50           -3.7814    -1.7101    -1.7541 H       
  51 H51           -2.2261    -2.5294    -1.4746 H       
  52 H52           -4.2844    -1.8378     0.6706 H       
  53 H53           -3.9973    -3.4579    -0.0085 H       
  54 H54           -2.7291    -2.6572     0.9501 H       
@<TRIPOS>BOND
   1    1    2 ar
   2    1    6 ar
   3    1    8 1
   4    2    3 ar
   5    2    9 1
   6    3    4 ar
   7    3   36 1
   8    4    5 ar
   9    4   11 1
  10    5    6 ar
  11    5   37 1
  12    7    8 am
  13    7    9 am
  14    7   10 2
  15    8   17 1
  16    9   34 1
  17   11   12 1
  18   12   13 1
  19   12   38 1
  20   12   39 1
  21   13   14 1
  22   13   15 1
  23   13   16 1
  24   17   18 ar
  25   17   22 ar
  26   18   19 ar
  27   18   40 1
  28   19   20 ar
  29   19   41 1
  30   20   21 ar
  31   20   23 1
  32   21   22 ar
  33   21   42 1
  34   22   43 1
  35   23   30 1
  36   24   25 ar
  37   24   29 ar
  38   24   31 1
  39   25   26 ar
  40   25   32 1
  41   26   27 ar
  42   26   44 1
  43   27   28 ar
  44   27   45 1
  45   28   29 ar
  46   28   46 1
  47   30   31 1
  48   30   32 2
  49   31   33 1
  50   33   47 1
  51   33   48 1
  52   33   49 1
  53   34   35 1
  54   34   50 1
  55   34   51 1
  56   35   52 1
  57   35   53 1
  58   35   54 1

#	End of record

