#	Name: ASD01730040
#	Creating user name:	WinNT
#	Creation time:	15. 06. 2019 19:23

#	Modifying user name:	WinNT
#	Modification time:	15. 06. 2019 19:23

#	Program:	/corina/corina34_cracker 3.40 0067  02.08.2006

@<TRIPOS>MOLECULE
ASD01730040
  32   33    0    0    0
SMALL
NO_CHARGES


@<TRIPOS>ATOM
   1 N1            -0.0162     1.3436     0.0094 N.am    
   2 C2             0.0985     0.0022    -0.0537 C.2     
   3 S3             1.6384    -0.7164    -0.2620 S.2     
   4 N4            -0.9991    -0.7735     0.0470 N.am    
   5 C5            -0.8744    -2.2316    -0.0217 C.3     
   6 C6            -2.2583    -2.8689     0.1180 C.3     
   7 C7            -2.1281    -4.3917     0.0463 C.3     
   8 N8             0.9964     3.4255    -0.0352 N.2     
   9 C9             1.1146     2.1317     0.0340 C.2     
  10 S10            2.6997     1.3727     0.1592 S.3     
  11 C11            3.6674     2.5514    -0.8170 C.3     
  12 C12            3.3323     3.9531    -0.3744 C.ar    
  13 C13            2.0356     4.3060    -0.0098 C.ar    
  14 C14            4.3426     4.8957    -0.3337 C.ar    
  15 C15            4.0765     6.1904     0.0714 C.ar    
  16 C16            2.7925     6.5504     0.4398 C.ar    
  17 C17            1.7766     5.6216     0.4021 C.ar    
  18 H18           -0.8945     1.7546     0.0336 H       
  19 H19           -1.8715    -0.3664     0.1650 H       
  20 H20           -0.4393    -2.5143    -0.9802 H       
  21 H21           -0.2309    -2.5797     0.7863 H       
  22 H22           -2.6935    -2.5862     1.0765 H       
  23 H23           -2.9018    -2.5208    -0.6900 H       
  24 H24           -3.1140    -4.8457     0.1458 H       
  25 H25           -1.6930    -4.6744    -0.9123 H       
  26 H26           -1.4846    -4.7398     0.8543 H       
  27 H27            4.7304     2.3653    -0.6637 H       
  28 H28            3.4249     2.4352    -1.8733 H       
  29 H29            5.3465     4.6188    -0.6199 H       
  30 H30            4.8713     6.9210     0.1008 H       
  31 H31            2.5866     7.5617     0.7578 H       
  32 H32            0.7760     5.9074     0.6910 H       
@<TRIPOS>BOND
   1    1    2 am
   2    1    9 1
   3    1   18 1
   4    2    3 2
   5    2    4 am
   6    4    5 1
   7    4   19 1
   8    5    6 1
   9    5   20 1
  10    5   21 1
  11    6    7 1
  12    6   22 1
  13    6   23 1
  14    7   24 1
  15    7   25 1
  16    7   26 1
  17    8    9 2
  18    8   13 1
  19    9   10 1
  20   10   11 1
  21   11   12 1
  22   11   27 1
  23   11   28 1
  24   12   13 ar
  25   12   14 ar
  26   13   17 ar
  27   14   15 ar
  28   14   29 1
  29   15   16 ar
  30   15   30 1
  31   16   17 ar
  32   16   31 1
  33   17   32 1

#	End of record

