#	Name: ASD01811990
#	Creating user name:	WinNT
#	Creation time:	15. 06. 2019 19:27

#	Modifying user name:	WinNT
#	Modification time:	15. 06. 2019 19:27

#	Program:	/corina/corina34_cracker 3.40 0067  02.08.2006

@<TRIPOS>MOLECULE
ASD01811990
  60   64    0    0    0
SMALL
NO_CHARGES


@<TRIPOS>ATOM
   1 C1            -0.0166     1.3737     0.0096 C.ar    
   2 C2             0.0021    -0.0041     0.0020 C.ar    
   3 C3             1.2107    -0.6790    -0.0277 C.ar    
   4 C4             2.4036     0.0212    -0.0498 C.ar    
   5 C5             2.3982     1.4021    -0.0346 C.ar    
   6 C6             1.2267    -2.1859    -0.0356 C.3     
   7 C7             3.7123    -0.7249    -0.0902 C.3     
   8 C8             4.0522    -1.0661    -1.5181 C.ar    
   9 C9             3.6138    -2.2588    -2.0646 C.ar    
  10 C10            4.7967    -0.1830    -2.2791 C.ar    
  11 C11            5.1105    -0.4902    -3.5876 C.ar    
  12 C12            4.6762    -1.6928    -4.1415 C.ar    
  13 C13            3.9221    -2.5764    -3.3719 C.ar    
  14 C14            1.1850     2.0851     0.0019 C.ar    
  15 C15            5.0105    -2.0286    -5.5477 C.2     
  16 C16            4.6552    -3.1565    -6.2101 C.2     
  17 O17            5.1608    -3.0568    -7.4544 O.3     
  18 C18            5.8109    -1.8889    -7.5441 C.2     
  19 N19            5.7207    -1.2634    -6.4068 N.2     
  20 C20           -1.1818     3.4242     0.7944 C.3     
  21 C21           -1.3218     2.1250     0.0052 C.3     
  22 C22            1.1452     3.5619     0.0540 C.2     
  23 N23           -0.0123     4.1812     0.3540 N.am    
  24 C24           -0.1005     5.6388     0.2363 C.3     
  25 C25            0.1858     6.0543    -1.2100 C.3     
  26 C26            0.1690     7.5821    -1.3066 C.3     
  27 O27            1.1328     8.1258    -0.4024 O.3     
  28 C28            0.8891     7.8095     0.9697 C.3     
  29 C29            0.9348     6.2909     1.1578 C.3     
  30 O30           -0.8170     5.5104    -2.0706 O.3     
  31 O31            2.1479     4.2109    -0.1714 O.2     
  32 C32            6.5264    -1.3783    -8.7683 C.3     
  33 H33           -0.9254    -0.5571     0.0196 H       
  34 H34            3.3293     1.9492    -0.0509 H       
  35 H35            1.2082    -2.5441    -1.0649 H       
  36 H36            2.1316    -2.5422     0.4568 H       
  37 H37            0.3521    -2.5614     0.4956 H       
  38 H38            4.4998    -0.1002     0.3315 H       
  39 H39            3.6256    -1.6424     0.4919 H       
  40 H40            3.0293    -2.9429    -1.4672 H       
  41 H41            5.1327     0.7488    -1.8488 H       
  42 H42            5.6912     0.2003    -4.1811 H       
  43 H43            3.5796    -3.5080    -3.7975 H       
  44 H44            4.0771    -3.9788    -5.8151 H       
  45 H45           -2.0761     4.0299     0.6482 H       
  46 H46           -1.0784     3.1900     1.8539 H       
  47 H47           -1.6031     2.3549    -1.0225 H       
  48 H48           -2.0960     1.5073     0.4603 H       
  49 H49           -1.1006     5.9675     0.5190 H       
  50 H50            1.1652     5.6811    -1.5091 H       
  51 H51            0.4144     7.8847    -2.3246 H       
  52 H52           -0.8227     7.9519    -1.0463 H       
  53 H53            1.6533     8.2759     1.5915 H       
  54 H54           -0.0932     8.1823     1.2598 H       
  55 H55            0.7056     6.0452     2.1947 H       
  56 H56            1.9294     5.9225     0.9065 H       
  57 H57           -0.6981     5.7342    -3.0038 H       
  58 H58            6.4337    -2.1070    -9.5736 H       
  59 H59            6.0826    -0.4330    -9.0807 H       
  60 H60            7.5803    -1.2257    -8.5359 H       
@<TRIPOS>BOND
   1    1    2 ar
   2    1   14 ar
   3    1   21 1
   4    2    3 ar
   5    2   33 1
   6    3    4 ar
   7    3    6 1
   8    4    5 ar
   9    4    7 1
  10    5   14 ar
  11    5   34 1
  12    6   35 1
  13    6   36 1
  14    6   37 1
  15    7    8 1
  16    7   38 1
  17    7   39 1
  18    8   10 ar
  19    8    9 ar
  20    9   13 ar
  21    9   40 1
  22   10   11 ar
  23   10   41 1
  24   11   12 ar
  25   11   42 1
  26   12   13 ar
  27   12   15 1
  28   13   43 1
  29   14   22 1
  30   15   16 2
  31   15   19 1
  32   16   17 1
  33   16   44 1
  34   17   18 1
  35   18   19 2
  36   18   32 1
  37   20   21 1
  38   20   23 1
  39   20   45 1
  40   20   46 1
  41   21   47 1
  42   21   48 1
  43   22   23 am
  44   22   31 2
  45   23   24 1
  46   24   25 1
  47   24   29 1
  48   24   49 1
  49   25   26 1
  50   25   30 1
  51   25   50 1
  52   26   27 1
  53   26   51 1
  54   26   52 1
  55   27   28 1
  56   28   29 1
  57   28   53 1
  58   28   54 1
  59   29   55 1
  60   29   56 1
  61   30   57 1
  62   32   58 1
  63   32   59 1
  64   32   60 1

#	End of record

