#	Name: ASD01915496
#	Creating user name:	WinNT
#	Creation time:	15. 06. 2019 20:05

#	Modifying user name:	WinNT
#	Modification time:	15. 06. 2019 20:05

#	Program:	/corina/corina34_cracker 3.40 0067  02.08.2006

@<TRIPOS>MOLECULE
ASD01915496
  46   49    0    0    0
SMALL
NO_CHARGES


@<TRIPOS>ATOM
   1 C1             0.0054     1.2865     0.1338 C.ar    
   2 C2             0.0101    -0.0980     0.1264 C.ar    
   3 C3            -1.1835    -0.7935     0.1183 C.ar    
   4 C4            -2.3871    -0.1040     0.1176 C.ar    
   5 C5            -2.3904     1.2831     0.1250 C.ar    
   6 C6            -1.1952     1.9759     0.1384 C.ar    
   7 O7            -3.5625    -0.7871     0.1092 O.3     
   8 C8            -4.7632    -0.0122     0.1089 C.3     
   9 C9            -5.9556    -0.9336     0.0991 C.ar    
  10 C10           -6.5169    -1.3705     1.2839 C.ar    
  11 N11           -7.5543    -2.1790     1.2769 N.ar    
  12 C12           -8.1102    -2.6139     0.1528 C.ar    
  13 C13           -7.6089    -2.2079    -1.0632 C.ar    
  14 C14           -6.5124    -1.3533    -1.0974 C.ar    
  15 C15           -9.2751    -3.5619     0.2755 C.3     
  16 C16          -10.0991    -3.5797    -1.0108 C.3     
  17 N17           -9.1706    -3.7250    -2.1439 N.am    
  18 C18           -8.2140    -2.6368    -2.3747 C.3     
  19 C19           -9.1979    -4.8142    -2.9372 C.2     
  20 C20           -8.3453    -4.8720    -4.1422 C.ar    
  21 O21           -9.9242    -5.7492    -2.6611 O.2     
  22 C22           -7.7843    -6.0853    -4.5462 C.ar    
  23 C23           -6.9899    -6.1336    -5.6716 C.ar    
  24 C24           -6.7475    -4.9804    -6.4021 C.ar    
  25 C25           -7.3016    -3.7729    -6.0052 C.ar    
  26 C26           -8.1022    -3.7144    -4.8847 C.ar    
  27 F27           -5.9681    -5.0332    -7.5044 F       
  28 F28            1.1735     1.9653     0.1422 F       
  29 H29            0.9474    -0.6346     0.1267 H       
  30 H30           -1.1796    -1.8734     0.1122 H       
  31 H31           -3.3268     1.8211     0.1240 H       
  32 H32           -1.1975     3.0559     0.1445 H       
  33 H33           -4.7933     0.6115     1.0023 H       
  34 H34           -4.7864     0.6216    -0.7776 H       
  35 H35           -6.0993    -1.0450     2.2252 H       
  36 H36           -6.0977    -1.0289    -2.0403 H       
  37 H37           -8.9008    -4.5658     0.4756 H       
  38 H38           -9.9095    -3.2450     1.1034 H       
  39 H39          -10.7925    -4.4205    -0.9925 H       
  40 H40          -10.6535    -2.6461    -1.1062 H       
  41 H41           -8.7293    -1.7913    -2.8304 H       
  42 H42           -7.4249    -2.9828    -3.0424 H       
  43 H43           -7.9723    -6.9841    -3.9777 H       
  44 H44           -6.5553    -7.0714    -5.9847 H       
  45 H45           -7.1093    -2.8775    -6.5776 H       
  46 H46           -8.5336    -2.7735    -4.5765 H       
@<TRIPOS>BOND
   1    1    2 ar
   2    1   28 1
   3    1    6 ar
   4    2    3 ar
   5    2   29 1
   6    3    4 ar
   7    3   30 1
   8    4    5 ar
   9    4    7 1
  10    5    6 ar
  11    5   31 1
  12    6   32 1
  13    7    8 1
  14    8    9 1
  15    8   33 1
  16    8   34 1
  17    9   10 ar
  18    9   14 ar
  19   10   11 ar
  20   10   35 1
  21   11   12 ar
  22   12   13 ar
  23   12   15 1
  24   13   14 ar
  25   13   18 1
  26   14   36 1
  27   15   16 1
  28   15   37 1
  29   15   38 1
  30   16   17 1
  31   16   39 1
  32   16   40 1
  33   17   18 1
  34   17   19 am
  35   18   41 1
  36   18   42 1
  37   19   20 1
  38   19   21 2
  39   20   22 ar
  40   20   26 ar
  41   22   23 ar
  42   22   43 1
  43   23   24 ar
  44   23   44 1
  45   24   25 ar
  46   24   27 1
  47   25   26 ar
  48   25   45 1
  49   26   46 1

#	End of record

