#	Name: ASD01911685
#	Creating user name:	WinNT
#	Creation time:	15. 06. 2019 19:58

#	Modifying user name:	WinNT
#	Modification time:	15. 06. 2019 19:58

#	Program:	/corina/corina34_cracker 3.40 0067  02.08.2006

@<TRIPOS>MOLECULE
ASD01911685
  38   41    0    0    0
SMALL
NO_CHARGES


@<TRIPOS>ATOM
   1 N1            -0.0184     1.3434    -0.0145 N.am    
   2 C2             0.0021    -0.0041     0.0020 C.2     
   3 C3            -1.2508    -0.7543     0.1205 C.2     
   4 C4            -1.3862    -2.1135     0.0310 C.2     
   5 S5            -2.8471    -0.0659     0.4110 S.3     
   6 C6            -3.5481    -1.6813     0.3771 C.2     
   7 N7            -2.6014    -2.5626     0.1691 N.2     
   8 C8            -4.9363    -1.9846     0.5542 C.1     
   9 C9            -6.0745    -2.2333     0.6993 C.1     
  10 C10           -7.4627    -2.5366     0.8764 C.ar    
  11 C11           -7.9039    -3.8625     0.8289 C.ar    
  12 C12           -9.2423    -4.1466     1.0008 C.ar    
  13 C13          -10.1481    -3.1233     1.2194 C.ar    
  14 C14           -9.7191    -1.8084     1.2677 C.ar    
  15 C15           -8.3831    -1.5088     1.1034 C.ar    
  16 O16            1.0614    -0.5977    -0.0815 O.2     
  17 C17           -1.1698     2.3083    -0.0393 C.3     
  18 C18           -0.8068     3.1747    -1.2827 C.3     
  19 C19            0.7415     3.1985    -1.2655 C.3     
  20 C20            1.1030     2.3432    -0.0072 C.3     
  21 C21           -0.8348     3.2047     1.1908 C.3     
  22 C22            0.7061     3.2284     1.2125 C.3     
  23 H23           -0.5446    -2.7679    -0.1422 H       
  24 H24           -7.1983    -4.6621     0.6577 H       
  25 H25           -9.5846    -5.1703     0.9644 H       
  26 H26          -11.1951    -3.3520     1.3526 H       
  27 H27          -10.4319    -1.0152     1.4383 H       
  28 H28           -8.0499    -0.4822     1.1413 H       
  29 H29           -2.1640     1.8618    -0.0512 H       
  30 H30           -1.1735     2.7074    -2.1967 H       
  31 H31           -1.2074     4.1830    -1.1784 H       
  32 H32            1.1426     2.7429    -2.1709 H       
  33 H33            1.1086     4.2185    -1.1526 H       
  34 H34            2.1105     1.9274     0.0090 H       
  35 H35           -1.2327     4.2101     1.0530 H       
  36 H36           -1.2222     2.7595     2.1072 H       
  37 H37            1.0838     2.7953     2.1387 H       
  38 H38            1.0764     4.2455     1.0839 H       
@<TRIPOS>BOND
   1    1    2 am
   2    1   17 1
   3    1   20 1
   4    2    3 1
   5    2   16 2
   6    3    4 2
   7    3    5 1
   8    4    7 1
   9    4   23 1
  10    5    6 1
  11    6    7 2
  12    6    8 1
  13    8    9 3
  14    9   10 1
  15   10   11 ar
  16   10   15 ar
  17   11   12 ar
  18   11   24 1
  19   12   13 ar
  20   12   25 1
  21   13   14 ar
  22   13   26 1
  23   14   15 ar
  24   14   27 1
  25   15   28 1
  26   17   18 1
  27   17   21 1
  28   17   29 1
  29   18   19 1
  30   18   30 1
  31   18   31 1
  32   19   20 1
  33   19   32 1
  34   19   33 1
  35   20   22 1
  36   20   34 1
  37   21   22 1
  38   21   35 1
  39   21   36 1
  40   22   37 1
  41   22   38 1

#	End of record

