#	Name: ASD03331411
#	Creating user name:	WinNT
#	Creation time:	15. 06. 2019 20:39

#	Modifying user name:	WinNT
#	Modification time:	15. 06. 2019 20:39

#	Program:	/corina/corina34_cracker 3.40 0067  02.08.2006

@<TRIPOS>MOLECULE
ASD03331411
  83   87    0    0    0
SMALL
NO_CHARGES


@<TRIPOS>ATOM
   1 N1            -2.0341     3.7856     7.3920 N.3     
   2 C2            -0.7786     4.3469     7.9071 C.3     
   3 C3            -0.9448     4.6983     9.3873 C.3     
   4 C4            -1.3192     3.4353    10.1678 C.3     
   5 C5            -2.6035     2.8437     9.5804 C.3     
   6 C6            -2.3893     2.5460     8.0946 C.3     
   7 N7            -2.8071     3.9322     3.2695 N.am    
   8 C8            -3.1649     2.6770     3.9442 C.3     
   9 C9            -3.2628     2.9376     5.4506 C.3     
  10 C10           -1.9562     3.5649     5.9418 C.3     
  11 C11           -1.7330     4.9032     5.2336 C.3     
  12 C12           -1.6178     4.6649     3.7248 C.3     
  13 C13           -0.8081     2.6379     5.6360 C.2     
  14 O14            0.2067     3.0740     5.1350 O.2     
  15 N15           -0.9090     1.3241     5.9192 N.am    
  16 C16           -3.5526     4.3997     2.2486 C.2     
  17 O17           -3.3017     5.4846     1.7593 O.2     
  18 N18           -6.6587     3.0089     0.9464 N.pl3   
  19 C19           -5.9236     4.0606     1.3841 C.2     
  20 C20           -4.6712     3.5969     1.7255 C.2     
  21 C21           -4.6635     2.1995     1.4776 C.2     
  22 C22           -5.8913     1.8691     1.0022 C.2     
  23 C23           -6.3942     5.4890     1.4806 C.3     
  24 C24           -7.0100     5.7310     2.8601 C.3     
  25 C25           -7.4878     7.1811     2.9581 C.3     
  26 O26           -8.0630     7.4071     4.2466 O.3     
  27 C27           -8.5435     8.7385     4.4432 C.3     
  28 C28           -9.1346     8.8650     5.8487 C.3     
  29 O29           -8.0996     8.6896     6.8183 O.3     
  30 C30           -6.3296     0.5123     0.6099 C.ar    
  31 C31           -5.5477    -0.2538    -0.2577 C.ar    
  32 C32           -5.9623    -1.5198    -0.6196 C.ar    
  33 C33           -7.1504    -2.0298    -0.1240 C.ar    
  34 C34           -7.9294    -1.2746     0.7359 C.ar    
  35 C35           -7.5229    -0.0101     1.1095 C.ar    
  36 Cl36          -7.6656    -3.6227    -0.5834 Cl      
  37 Cl37          -4.0583     0.3850    -0.8801 Cl      
  38 C38           -7.9896     3.0721     0.5121 C.ar    
  39 C39           -8.2945     2.8696    -0.8272 C.ar    
  40 C40           -9.6069     2.9320    -1.2527 C.ar    
  41 C41          -10.6178     3.1961    -0.3452 C.ar    
  42 C42          -10.3165     3.3988     0.9902 C.ar    
  43 C43           -9.0062     3.3317     1.4215 C.ar    
  44 Cl44         -12.2666     3.2739    -0.8830 Cl      
  45 H45            0.0199     3.6134     7.7954 H       
  46 H46           -0.5261     5.2468     7.3463 H       
  47 H47           -0.0081     5.1004     9.7732 H       
  48 H48           -1.7339     5.4421     9.4983 H       
  49 H49           -0.5130     2.7061    10.0890 H       
  50 H50           -1.4810     3.6891    11.2154 H       
  51 H51           -2.8519     1.9208    10.1043 H       
  52 H52           -3.4187     3.5583     9.6945 H       
  53 H53           -3.3065     2.1380     7.6700 H       
  54 H54           -1.5832     1.8210     7.9821 H       
  55 H55           -4.1259     2.3228     3.5714 H       
  56 H56           -2.3973     1.9273     3.7522 H       
  57 H57           -4.0904     3.6186     5.6490 H       
  58 H58           -3.4329     1.9958     5.9724 H       
  59 H59           -2.5751     5.5657     5.4341 H       
  60 H60           -0.8143     5.3604     5.6010 H       
  61 H61           -0.7240     4.0773     3.5148 H       
  62 H62           -1.5580     5.6223     3.2072 H       
  63 H63           -1.7490     0.9602     6.2398 H       
  64 H64           -0.1416     0.7424     5.8023 H       
  65 H65           -3.8355     1.5249     1.6377 H       
  66 H66           -5.5479     6.1608     1.3376 H       
  67 H67           -7.1422     5.6779     0.7106 H       
  68 H68           -7.8564     5.0591     3.0031 H       
  69 H69           -6.2620     5.5420     3.6301 H       
  70 H70           -6.6414     7.8530     2.8152 H       
  71 H71           -8.2358     7.3701     2.1881 H       
  72 H72           -7.7190     9.4426     4.3310 H       
  73 H73           -9.3134     8.9597     3.7040 H       
  74 H74           -9.5805     9.8524     5.9678 H       
  75 H75           -9.8992     8.1014     5.9914 H       
  76 H76           -8.4029     8.7571     7.7340 H       
  77 H77           -5.3592    -2.1133    -1.2906 H       
  78 H78           -8.8553    -1.6779     1.1188 H       
  79 H79           -8.1294     0.5759     1.7842 H       
  80 H80           -7.5058     2.6638    -1.5359 H       
  81 H81           -9.8445     2.7749    -2.2944 H       
  82 H82          -11.1071     3.6051     1.6964 H       
  83 H83           -8.7721     3.4852     2.4646 H       
@<TRIPOS>BOND
   1    1    2 1
   2    1    6 1
   3    1   10 1
   4    2    3 1
   5    2   45 1
   6    2   46 1
   7    3    4 1
   8    3   47 1
   9    3   48 1
  10    4    5 1
  11    4   49 1
  12    4   50 1
  13    5    6 1
  14    5   51 1
  15    5   52 1
  16    6   53 1
  17    6   54 1
  18    7    8 1
  19    7   12 1
  20    7   16 am
  21    8    9 1
  22    8   55 1
  23    8   56 1
  24    9   10 1
  25    9   57 1
  26    9   58 1
  27   10   11 1
  28   10   13 1
  29   11   12 1
  30   11   59 1
  31   11   60 1
  32   12   61 1
  33   12   62 1
  34   13   14 2
  35   13   15 am
  36   15   63 1
  37   15   64 1
  38   16   17 2
  39   16   20 1
  40   18   19 1
  41   18   22 1
  42   18   38 1
  43   19   20 2
  44   19   23 1
  45   20   21 1
  46   21   22 2
  47   21   65 1
  48   22   30 1
  49   23   24 1
  50   23   66 1
  51   23   67 1
  52   24   25 1
  53   24   68 1
  54   24   69 1
  55   25   26 1
  56   25   70 1
  57   25   71 1
  58   26   27 1
  59   27   28 1
  60   27   72 1
  61   27   73 1
  62   28   29 1
  63   28   74 1
  64   28   75 1
  65   29   76 1
  66   30   31 ar
  67   30   35 ar
  68   31   32 ar
  69   31   37 1
  70   32   33 ar
  71   32   77 1
  72   33   34 ar
  73   33   36 1
  74   34   35 ar
  75   34   78 1
  76   35   79 1
  77   38   39 ar
  78   38   43 ar
  79   39   40 ar
  80   39   80 1
  81   40   41 ar
  82   40   81 1
  83   41   42 ar
  84   41   44 1
  85   42   43 ar
  86   42   82 1
  87   43   83 1

#	End of record

