#	Name: ASD01884426
#	Creating user name:	WinNT
#	Creation time:	15. 06. 2019 19:48

#	Modifying user name:	WinNT
#	Modification time:	15. 06. 2019 19:48

#	Program:	/corina/corina34_cracker 3.40 0067  02.08.2006

@<TRIPOS>MOLECULE
ASD01884426
  39   42    0    0    0
SMALL
NO_CHARGES


@<TRIPOS>ATOM
   1 C1            -0.0164     1.3573     0.0095 C.2     
   2 C2             0.0021    -0.0041     0.0020 C.2     
   3 C3             1.2448    -0.6752    -0.0135 C.2     
   4 C4             2.4038     0.0475    -0.0206 C.2     
   5 N5             2.3704     1.4030    -0.0126 N.am    
   6 C6             1.1987     2.0652     0.0017 C.2     
   7 C7             1.2910    -2.1565    -0.0214 C.ar    
   8 C8             3.6265     2.1569    -0.0201 C.3     
   9 O9             1.1907     3.2856     0.0092 O.2     
  10 C10            4.0439     2.4235    -1.4433 C.ar    
  11 C11            3.6193     3.5722    -2.0845 C.ar    
  12 C12            4.0022     3.8168    -3.3901 C.ar    
  13 C13            4.8099     2.9128    -4.0543 C.ar    
  14 C14            5.2352     1.7645    -3.4129 C.ar    
  15 C15            4.8559     1.5221    -2.1059 C.ar    
  16 C16            0.9876    -2.8694    -1.1948 C.ar    
  17 C17            1.6399    -2.8528     1.1287 C.ar    
  18 C18            1.6831    -4.2373     1.1197 C.ar    
  19 C19            1.3824    -4.9459    -0.0241 C.ar    
  20 C20            1.0347    -4.2741    -1.1921 C.ar    
  21 N21            0.6917    -4.6942    -2.4582 N.pl3   
  22 C22            0.4369    -3.6107    -3.2540 C.2     
  23 C23            0.5974    -2.4784    -2.5492 C.2     
  24 H24           -0.9564     1.8891     0.0169 H       
  25 H25           -0.9217    -0.5636     0.0082 H       
  26 H26            3.3544    -0.4648    -0.0325 H       
  27 H27            3.4849     3.1040     0.5005 H       
  28 H28            4.4008     1.5778     0.4832 H       
  29 H29            2.9883     4.2785    -1.5655 H       
  30 H30            3.6699     4.7139    -3.8912 H       
  31 H31            5.1084     3.1035    -5.0746 H       
  32 H32            5.8660     1.0581    -3.9320 H       
  33 H33            5.1882     0.6250    -1.6047 H       
  34 H34            1.8787    -2.3129     2.0330 H       
  35 H35            1.9561    -4.7682     2.0197 H       
  36 H36            1.4210    -6.0252    -0.0148 H       
  37 H37            0.6386    -5.6198    -2.7431 H       
  38 H38            0.1468    -3.6587    -4.2932 H       
  39 H39            0.4647    -1.4705    -2.9138 H       
@<TRIPOS>BOND
   1    1    2 2
   2    1    6 1
   3    1   24 1
   4    2    3 1
   5    2   25 1
   6    3    4 2
   7    3    7 1
   8    4    5 1
   9    4   26 1
  10    5    6 am
  11    5    8 1
  12    6    9 2
  13    7   16 ar
  14    7   17 ar
  15    8   10 1
  16    8   27 1
  17    8   28 1
  18   10   11 ar
  19   10   15 ar
  20   11   12 ar
  21   11   29 1
  22   12   13 ar
  23   12   30 1
  24   13   14 ar
  25   13   31 1
  26   14   15 ar
  27   14   32 1
  28   15   33 1
  29   16   20 ar
  30   16   23 1
  31   17   18 ar
  32   17   34 1
  33   18   19 ar
  34   18   35 1
  35   19   20 ar
  36   19   36 1
  37   20   21 1
  38   21   22 1
  39   21   37 1
  40   22   23 2
  41   22   38 1
  42   23   39 1

#	End of record

