#	Name: ASD01903338
#	Creating user name:	WinNT
#	Creation time:	15. 06. 2019 19:54

#	Modifying user name:	WinNT
#	Modification time:	15. 06. 2019 19:54

#	Program:	/corina/corina34_cracker 3.40 0067  02.08.2006

@<TRIPOS>MOLECULE
ASD01903338
  41   44    0    0    0
SMALL
NO_CHARGES


@<TRIPOS>ATOM
   1 C1            -0.0232     1.3665     0.1888 C.ar    
   2 C2             0.0103    -0.0073     0.3040 C.ar    
   3 C3             1.2068    -0.6994     0.1546 C.ar    
   4 C4             2.3660    -0.0072    -0.1108 C.ar    
   5 C5             2.3295     1.3778    -0.2270 C.ar    
   6 C6             1.1415     2.0621    -0.0779 C.ar    
   7 S7             1.5174    -2.4329     0.2533 S.o2    
   8 N8             3.1424    -2.6379    -0.0147 N.am    
   9 S9             3.7372    -1.1071    -0.2549 S.o2    
  10 O10            4.1617    -1.0473    -1.6097 O.2     
  11 O11            4.5939    -0.8301     0.8445 O.2     
  12 O12            1.2806    -2.8089     1.6031 O.2     
  13 O13            0.8484    -3.0261    -0.8511 O.2     
  14 C14            3.8564    -3.8406    -0.0336 C.ar    
  15 C15            5.2242    -3.8326    -0.2752 C.ar    
  16 C16            5.9287    -5.0197    -0.2939 C.ar    
  17 C17            5.2699    -6.2219    -0.0715 C.ar    
  18 C18            3.9022    -6.2300     0.1697 C.ar    
  19 C19            3.1987    -5.0424     0.1949 C.ar    
  20 N20            5.9846    -7.4261    -0.0909 N.am    
  21 C21            5.4119    -8.5418    -0.5845 C.2     
  22 C22            6.2008    -9.7900    -0.7007 C.ar    
  23 O23            4.2481    -8.5237    -0.9343 O.2     
  24 C24            5.6032   -10.9398    -1.2116 C.ar    
  25 C25            6.3543   -12.1003    -1.3143 C.ar    
  26 C26            7.6772   -12.0703    -0.9022 C.ar    
  27 C27            8.2068   -10.8906    -0.4034 C.ar    
  28 N28            7.4732    -9.8022    -0.3220 N.ar    
  29 H29           -0.9571     1.8970     0.3021 H       
  30 H30           -0.9000    -0.5499     0.5123 H       
  31 H31            3.2388     1.9221    -0.4353 H       
  32 H32            1.1209     3.1380    -0.1699 H       
  33 H33            5.7364    -2.8978    -0.4489 H       
  34 H34            6.9922    -5.0135    -0.4818 H       
  35 H35            3.3898    -7.1650     0.3419 H       
  36 H36            2.1351    -5.0487     0.3828 H       
  37 H37            6.8919    -7.4571     0.2509 H       
  38 H38            4.5691   -10.9273    -1.5231 H       
  39 H39            5.9184   -13.0074    -1.7061 H       
  40 H40            8.2893   -12.9575    -0.9687 H       
  41 H41            9.2372   -10.8637    -0.0810 H       
@<TRIPOS>BOND
   1    1    2 ar
   2    1    6 ar
   3    1   29 1
   4    2    3 ar
   5    2   30 1
   6    3    4 ar
   7    3    7 1
   8    4    5 ar
   9    4    9 1
  10    5    6 ar
  11    5   31 1
  12    6   32 1
  13    7    8 am
  14    7   12 2
  15    7   13 2
  16    8    9 am
  17    8   14 1
  18    9   10 2
  19    9   11 2
  20   14   15 ar
  21   14   19 ar
  22   15   16 ar
  23   15   33 1
  24   16   17 ar
  25   16   34 1
  26   17   18 ar
  27   17   20 1
  28   18   19 ar
  29   18   35 1
  30   19   36 1
  31   20   21 am
  32   20   37 1
  33   21   22 1
  34   21   23 2
  35   22   24 ar
  36   22   28 ar
  37   24   25 ar
  38   24   38 1
  39   25   26 ar
  40   25   39 1
  41   26   27 ar
  42   26   40 1
  43   27   28 ar
  44   27   41 1

#	End of record

