#	Name: ASD01151118
#	Creating user name:	WinNT
#	Creation time:	15. 06. 2019 19:05

#	Modifying user name:	WinNT
#	Modification time:	15. 06. 2019 19:05

#	Program:	/corina/corina34_cracker 3.40 0067  02.08.2006

@<TRIPOS>MOLECULE
ASD01151118
  63   66    0    0    0
SMALL
NO_CHARGES


@<TRIPOS>ATOM
   1 C1             3.3742    -2.4391    -1.8016 C.3     
   2 C2             1.9218    -2.9024    -1.6717 C.3     
   3 C3             0.9929    -1.8408    -2.2640 C.3     
   4 C4             1.1739    -0.5235    -1.5062 C.3     
   5 C5             0.8665    -0.7399    -0.0227 C.3     
   6 C6            -0.5893    -1.1908     0.1324 C.3     
   7 N7            -0.8098    -2.3752    -0.7086 N.pl3   
   8 C8            -0.4615    -2.3041    -2.1342 C.3     
   9 C9            -1.3330    -3.5313    -0.1702 C.2     
  10 C10           -2.5620    -3.9870    -0.5640 C.2     
  11 C11           -3.3603    -3.2290    -1.5931 C.3     
  12 C12           -3.8197    -4.1900    -2.6915 C.3     
  13 C13           -4.5827    -2.5958    -0.9254 C.3     
  14 C14           -3.0686    -5.1599    -0.0041 C.2     
  15 C15           -4.4208    -5.6704    -0.4307 C.3     
  16 N16           -2.3730    -5.8231     0.8933 N.2     
  17 C17           -1.1667    -5.3906     1.2906 C.2     
  18 C18           -0.2483    -5.8911     2.2002 C.2     
  19 C19            0.8483    -5.0236     2.2136 C.2     
  20 N20            0.6207    -4.0417     1.3601 N.2     
  21 N21           -0.6283    -4.2449     0.7629 N.pl3   
  22 C22            2.0654    -5.1800     3.0486 C.ar    
  23 C23            2.1873    -6.2677     3.9097 C.ar    
  24 C24            3.3214    -6.4086     4.6842 C.ar    
  25 C25            4.3365    -5.4724     4.6071 C.ar    
  26 C26            4.2226    -4.3894     3.7547 C.ar    
  27 C27            3.0945    -4.2409     2.9695 C.ar    
  28 F28            2.9861    -3.1863     2.1321 F       
  29 C29            5.5715    -5.6329     5.4557 C.3     
  30 F30            6.5244    -6.3807     4.7556 F       
  31 F31            6.0976    -4.3720     5.7567 F       
  32 F32            5.2391    -6.2950     6.6424 F       
  33 C33            1.3273    -1.6349    -3.7189 C.2     
  34 O34            2.5552    -1.2253    -4.0739 O.3     
  35 O35            0.4900    -1.8387    -4.5659 O.2     
  36 H36            3.6156    -2.2914    -2.8542 H       
  37 H37            3.5056    -1.5003    -1.2635 H       
  38 H38            4.0360    -3.1954    -1.3797 H       
  39 H39            1.7904    -3.8412    -2.2098 H       
  40 H40            1.6804    -3.0501    -0.6191 H       
  41 H41            2.2020    -0.1789    -1.6175 H       
  42 H42            0.4942     0.2255    -1.9125 H       
  43 H43            1.5295    -1.5067     0.3781 H       
  44 H44            1.0183     0.1930     0.5201 H       
  45 H45           -0.7851    -1.4414     1.1750 H       
  46 H46           -1.2560    -0.3886    -0.1841 H       
  47 H47           -1.1178    -1.5927    -2.6356 H       
  48 H48           -0.5730    -3.2892    -2.5871 H       
  49 H49           -2.7396    -2.4471    -2.0307 H       
  50 H50           -2.9489    -4.6410    -3.1672 H       
  51 H51           -4.4404    -4.9718    -2.2539 H       
  52 H52           -4.3971    -3.6416    -3.4358 H       
  53 H53           -4.2551    -1.8616    -0.1894 H       
  54 H54           -5.1956    -2.1043    -1.6810 H       
  55 H55           -5.1682    -3.3704    -0.4302 H       
  56 H56           -4.2969    -6.4113    -1.2206 H       
  57 H57           -4.9218    -6.1287     0.4220 H       
  58 H58           -5.0219    -4.8404    -0.8022 H       
  59 H59           -0.3596    -6.7880     2.7914 H       
  60 H60            1.3957    -6.9997     3.9718 H       
  61 H61            3.4160    -7.2518     5.3524 H       
  62 H62            5.0181    -3.6610     3.6989 H       
  63 H63            2.7225    -1.1072    -5.0190 H       
@<TRIPOS>BOND
   1    1    2 1
   2    1   36 1
   3    1   37 1
   4    1   38 1
   5    2    3 1
   6    2   39 1
   7    2   40 1
   8    3    8 1
   9    3    4 1
  10    3   33 1
  11    4    5 1
  12    4   41 1
  13    4   42 1
  14    5    6 1
  15    5   43 1
  16    5   44 1
  17    6    7 1
  18    6   45 1
  19    6   46 1
  20    7    8 1
  21    7    9 1
  22    8   47 1
  23    8   48 1
  24    9   21 1
  25    9   10 2
  26   10   11 1
  27   10   14 1
  28   11   12 1
  29   11   13 1
  30   11   49 1
  31   12   50 1
  32   12   51 1
  33   12   52 1
  34   13   53 1
  35   13   54 1
  36   13   55 1
  37   14   15 1
  38   14   16 2
  39   15   56 1
  40   15   57 1
  41   15   58 1
  42   16   17 1
  43   17   21 1
  44   17   18 2
  45   18   19 1
  46   18   59 1
  47   19   20 2
  48   19   22 1
  49   20   21 1
  50   22   27 ar
  51   22   23 ar
  52   23   24 ar
  53   23   60 1
  54   24   25 ar
  55   24   61 1
  56   25   26 ar
  57   25   29 1
  58   26   27 ar
  59   26   62 1
  60   27   28 1
  61   29   30 1
  62   29   31 1
  63   29   32 1
  64   33   34 1
  65   33   35 2
  66   34   63 1

#	End of record

