#	Name: ASD03740213
#	Creating user name:	WinNT
#	Creation time:	15. 06. 2019 20:46

#	Modifying user name:	WinNT
#	Modification time:	15. 06. 2019 20:46

#	Program:	/corina/corina34_cracker 3.40 0067  02.08.2006

@<TRIPOS>MOLECULE
ASD03740213
  56   59    0    0    0
SMALL
NO_CHARGES


@<TRIPOS>ATOM
   1 C1             0.0232     1.4943     0.1441 C.3     
   2 C2             0.2089     0.0066     0.0473 C.2     
   3 C3             1.3624    -0.5196    -0.4078 C.2     
   4 N4             2.3869     0.3117    -0.7786 N.pl3   
   5 C5             2.3810     1.6279    -0.3636 C.2     
   6 N6             1.3009     2.1920     0.0693 N.2     
   7 C7            -0.8587     1.9564    -0.9871 C.ar    
   8 C8            -2.2342     1.9576    -0.8355 C.ar    
   9 C9            -3.0439     2.3820    -1.8732 C.ar    
  10 C10           -2.4774     2.8057    -3.0634 C.ar    
  11 C11           -1.1011     2.8039    -3.2133 C.ar    
  12 C12           -0.2931     2.3843    -2.1733 C.ar    
  13 C13            3.6385     2.4110    -0.4151 C.ar    
  14 N14            4.7516     1.8400    -0.8581 N.ar    
  15 C15            5.8884     2.4999    -0.9198 C.ar    
  16 C16            5.9646     3.8239    -0.5213 C.ar    
  17 C17            4.8251     4.4591    -0.0519 C.ar    
  18 C18            3.6407     3.7416    -0.0037 C.ar    
  19 C19           -0.8420    -0.8535     0.4398 C.2     
  20 O20           -1.6408    -1.4124    -0.4933 O.3     
  21 O21           -1.0264    -1.0899     1.6192 O.2     
  22 C22           -2.6827    -2.2712    -0.0253 C.3     
  23 C23            1.5256    -2.0144    -0.5081 C.3     
  24 C24            1.2188    -2.4662    -1.9373 C.3     
  25 N25            1.3779    -3.9232    -2.0351 N.3     
  26 C26            0.8665    -4.4241    -3.3192 C.3     
  27 C27            1.1057    -5.9339    -3.4038 C.3     
  28 O28            0.4829    -6.5734    -2.2864 O.3     
  29 C29            0.9578    -6.1100    -1.0196 C.3     
  30 C30            0.7172    -4.6020    -0.9109 C.3     
  31 Cl31          -2.9435     1.4256     0.6571 Cl      
  32 F32           -3.2673     3.2202    -4.0780 F       
  33 H33           -0.4591     1.7330     1.0920 H       
  34 H34            3.1120    -0.0230    -1.3292 H       
  35 H35           -4.1174     2.3827    -1.7553 H       
  36 H36           -0.6586     3.1342    -4.1415 H       
  37 H37            0.7807     2.3869    -2.2891 H       
  38 H38            6.7741     2.0020    -1.2859 H       
  39 H39            6.9026     4.3564    -0.5752 H       
  40 H40            4.8589     5.4910     0.2647 H       
  41 H41            2.7330     4.2063     0.3520 H       
  42 H42           -2.2466    -3.1053     0.5245 H       
  43 H43           -3.3477    -1.7109     0.6319 H       
  44 H44           -3.2485    -2.6526    -0.8753 H       
  45 H45            2.5500    -2.2860    -0.2532 H       
  46 H46            0.8378    -2.5022     0.1826 H       
  47 H47            0.1944    -2.1946    -2.1922 H       
  48 H48            1.9066    -1.9784    -2.6281 H       
  49 H49           -0.2020    -4.2203    -3.3899 H       
  50 H50            1.3874    -3.9267    -4.1374 H       
  51 H51            0.6771    -6.3190    -4.3290 H       
  52 H52            2.1770    -6.1341    -3.3871 H       
  53 H53            0.4223    -6.6226    -0.2204 H       
  54 H54            2.0249    -6.3154    -0.9336 H       
  55 H55            1.1290    -4.2345     0.0290 H       
  56 H56           -0.3537    -4.4011    -0.9430 H       
@<TRIPOS>BOND
   1    1    2 1
   2    1    6 1
   3    1    7 1
   4    1   33 1
   5    2    3 2
   6    2   19 1
   7    3    4 1
   8    3   23 1
   9    4    5 1
  10    4   34 1
  11    5    6 2
  12    5   13 1
  13    7    8 ar
  14    7   12 ar
  15    8    9 ar
  16    8   31 1
  17    9   10 ar
  18    9   35 1
  19   10   11 ar
  20   10   32 1
  21   11   12 ar
  22   11   36 1
  23   12   37 1
  24   13   14 ar
  25   13   18 ar
  26   14   15 ar
  27   15   16 ar
  28   15   38 1
  29   16   17 ar
  30   16   39 1
  31   17   18 ar
  32   17   40 1
  33   18   41 1
  34   19   20 1
  35   19   21 2
  36   20   22 1
  37   22   42 1
  38   22   43 1
  39   22   44 1
  40   23   24 1
  41   23   45 1
  42   23   46 1
  43   24   25 1
  44   24   47 1
  45   24   48 1
  46   25   26 1
  47   25   30 1
  48   26   27 1
  49   26   49 1
  50   26   50 1
  51   27   28 1
  52   27   51 1
  53   27   52 1
  54   28   29 1
  55   29   30 1
  56   29   53 1
  57   29   54 1
  58   30   55 1
  59   30   56 1

#	End of record

