#	Name: ASD00241038
#	Creating user name:	WinNT
#	Creation time:	15. 06. 2019 18:33

#	Modifying user name:	WinNT
#	Modification time:	15. 06. 2019 18:33

#	Program:	/corina/corina34_cracker 3.40 0067  02.08.2006

@<TRIPOS>MOLECULE
ASD00241038
  32   34    0    0    0
SMALL
NO_CHARGES


@<TRIPOS>ATOM
   1 N1            -0.0158     1.3174     0.0093 N.ar    
   2 C2             0.0021    -0.0041     0.0020 C.ar    
   3 N3             1.1237    -0.6954    -0.0120 N.ar    
   4 C4             2.3002    -0.0771    -0.0199 C.ar    
   5 C5             2.3338     1.3275    -0.0131 C.ar    
   6 C6             1.1117     2.0208     0.0023 C.ar    
   7 N7             3.6095    -0.4868    -0.0342 N.pl3   
   8 C8             4.3880     0.6326    -0.0358 C.2     
   9 N9             3.6378     1.6958    -0.0235 N.2     
  10 C10            4.0840    -1.8727    -0.0449 C.3     
  11 O11            5.4262    -1.9487     0.4828 O.3     
  12 C12            5.9619    -3.1932    -0.0172 C.3     
  13 C13            5.4643    -3.2787    -1.4772 C.3     
  14 C14            4.2005    -2.3901    -1.4958 C.3     
  15 C15            7.4911    -3.1696     0.0238 C.3     
  16 O16            3.0504    -3.1625    -1.8459 O.3     
  17 O17            5.1333    -4.6272    -1.8152 O.3     
  18 N18            1.0829     3.4043     0.0091 N.pl3   
  19 O19            7.9307    -3.1335     1.3831 O.3     
  20 Cl20          -1.5078    -0.8607     0.0118 Cl      
  21 H21            5.4679     0.6363    -0.0452 H       
  22 H22            3.4125    -2.5075     0.5333 H       
  23 H23            5.5787    -4.0320     0.5640 H       
  24 H24            6.2172    -2.8865    -2.1608 H       
  25 H25            4.3286    -1.5584    -2.1887 H       
  26 H26            7.8815    -4.0647    -0.4606 H       
  27 H27            7.8550    -2.2853    -0.4993 H       
  28 H28            3.0975    -3.5617    -2.7254 H       
  29 H29            5.8788    -5.2406    -1.7607 H       
  30 H30            1.9126     3.9068     0.0033 H       
  31 H31            0.2329     3.8717     0.0198 H       
  32 H32            8.8921    -3.1170     1.4852 H       
@<TRIPOS>BOND
   1    1    2 ar
   2    1    6 ar
   3    2    3 ar
   4    2   20 1
   5    3    4 ar
   6    4    5 ar
   7    4    7 1
   8    5    6 ar
   9    5    9 1
  10    6   18 1
  11    7    8 1
  12    7   10 1
  13    8    9 2
  14    8   21 1
  15   10   11 1
  16   10   14 1
  17   10   22 1
  18   11   12 1
  19   12   13 1
  20   12   15 1
  21   12   23 1
  22   13   14 1
  23   13   17 1
  24   13   24 1
  25   14   16 1
  26   14   25 1
  27   15   19 1
  28   15   26 1
  29   15   27 1
  30   16   28 1
  31   17   29 1
  32   18   30 1
  33   18   31 1
  34   19   32 1

#	End of record

