#	Name: ASD02398017
#	Creating user name:	WinNT
#	Creation time:	15. 06. 2019 20:20

#	Modifying user name:	WinNT
#	Modification time:	15. 06. 2019 20:20

#	Program:	/corina/corina34_cracker 3.40 0067  02.08.2006

@<TRIPOS>MOLECULE
ASD02398017
  56   59    0    0    0
SMALL
NO_CHARGES


@<TRIPOS>ATOM
   1 C1            -0.8138     1.0101     0.3557 C.ar    
   2 C2            -0.3805    -0.3160     0.3137 C.ar    
   3 C3            -1.2859    -1.3466     0.5559 C.ar    
   4 C4            -2.6051    -1.0520     0.8359 C.ar    
   5 C5            -3.0303     0.2636     0.8761 C.ar    
   6 C6            -2.1363     1.2926     0.6424 C.ar    
   7 C7            -3.5848    -2.1667     1.0980 C.3     
   8 C8            -3.5215    -2.5596     2.5515 C.2     
   9 O9            -2.6960    -2.0583     3.2775 O.2     
  10 O10           -4.3823    -3.4666     3.0396 O.3     
  11 C11            1.0384    -0.6268     0.0118 C.ar    
  12 C12            2.0397    -0.2697     0.9131 C.ar    
  13 C13            1.3743    -1.2819    -1.1711 C.ar    
  14 C14            2.6961    -1.5690    -1.4467 C.ar    
  15 C15            3.6861    -1.2080    -0.5509 C.ar    
  16 C16            3.3578    -0.5616     0.6274 C.ar    
  17 C17            1.6836     0.4345     2.1970 C.3     
  18 N18            2.8812     0.5649     3.0307 N.am    
  19 C19            3.7909     1.5446     2.9400 C.2     
  20 O20            4.7934     1.4351     3.8190 O.3     
  21 C21            4.5930     0.2476     4.6390 C.3     
  22 C22            3.2777    -0.3546     4.1082 C.3     
  23 O23            3.7127     2.4495     2.1328 O.2     
  24 C24            3.5169    -1.7577     3.5470 C.3     
  25 C25            5.7339    -0.7197     4.4557 C.ar    
  26 C26            6.1531    -1.5028     5.5149 C.ar    
  27 C27            6.3576    -0.8280     3.2268 C.ar    
  28 C28            7.4042    -1.7153     3.0586 C.ar    
  29 C29            7.8274    -2.4940     4.1195 C.ar    
  30 C30            7.1997    -2.3901     5.3468 C.ar    
  31 F31            0.0583     2.0152     0.1224 F       
  32 C32            5.1272    -1.5250    -0.8569 C.3     
  33 F33            5.2090    -2.1796    -2.0906 F       
  34 F34            5.8650    -0.3375    -0.9093 F       
  35 F35            5.6457    -2.3523     0.1452 F       
  36 H36           -0.9562    -2.3745     0.5244 H       
  37 H37           -4.0636     0.4884     1.0953 H       
  38 H38           -2.4737     2.3180     0.6754 H       
  39 H39           -4.5926    -1.8290     0.8565 H       
  40 H40           -3.3313    -3.0265     0.4778 H       
  41 H41           -4.3031    -3.6865     3.9780 H       
  42 H42            0.6020    -1.5649    -1.8709 H       
  43 H43            2.9576    -2.0768    -2.3633 H       
  44 H44            4.1349    -0.2816     1.3231 H       
  45 H45            1.2887     1.4249     1.9707 H       
  46 H46            0.9300    -0.1437     2.7315 H       
  47 H47            4.4878     0.5214     5.6888 H       
  48 H48            2.5231    -0.3791     4.8943 H       
  49 H49            3.9346    -2.3945     4.3267 H       
  50 H50            2.5717    -2.1773     3.2027 H       
  51 H51            4.2149    -1.7008     2.7117 H       
  52 H52            5.6632    -1.4211     6.4739 H       
  53 H53            6.0269    -0.2196     2.3979 H       
  54 H54            7.8910    -1.8004     2.0983 H       
  55 H55            8.6448    -3.1874     3.9880 H       
  56 H56            7.5303    -2.9984     6.1756 H       
@<TRIPOS>BOND
   1    1    2 ar
   2    1   31 1
   3    1    6 ar
   4    2    3 ar
   5    2   11 1
   6    3    4 ar
   7    3   36 1
   8    4    5 ar
   9    4    7 1
  10    5    6 ar
  11    5   37 1
  12    6   38 1
  13    7    8 1
  14    7   39 1
  15    7   40 1
  16    8    9 2
  17    8   10 1
  18   10   41 1
  19   11   12 ar
  20   11   13 ar
  21   12   17 1
  22   12   16 ar
  23   13   14 ar
  24   13   42 1
  25   14   15 ar
  26   14   43 1
  27   15   16 ar
  28   15   32 1
  29   16   44 1
  30   17   18 1
  31   17   45 1
  32   17   46 1
  33   18   19 am
  34   18   22 1
  35   19   20 1
  36   19   23 2
  37   20   21 1
  38   21   22 1
  39   21   25 1
  40   21   47 1
  41   22   24 1
  42   22   48 1
  43   24   49 1
  44   24   50 1
  45   24   51 1
  46   25   26 ar
  47   25   27 ar
  48   26   30 ar
  49   26   52 1
  50   27   28 ar
  51   27   53 1
  52   28   29 ar
  53   28   54 1
  54   29   30 ar
  55   29   55 1
  56   30   56 1
  57   32   33 1
  58   32   34 1
  59   32   35 1

#	End of record

