#	Name: ASD00071043
#	Creating user name:	WinNT
#	Creation time:	15. 06. 2019 18:30

#	Modifying user name:	WinNT
#	Modification time:	15. 06. 2019 18:30

#	Program:	/corina/corina34_cracker 3.40 0067  02.08.2006

@<TRIPOS>MOLECULE
ASD00071043
  35   37    0    0    0
SMALL
NO_CHARGES


@<TRIPOS>ATOM
   1 N1             2.6372     1.0834    -0.0579 N.ar    
   2 C2             2.4078    -0.1956     0.1584 C.ar    
   3 C3             1.1043    -0.7150     0.1903 C.ar    
   4 C4             0.0389     0.1116    -0.0057 C.ar    
   5 C5             0.2924     1.4774    -0.2362 C.ar    
   6 C6            -0.7404     2.4047    -0.4481 C.ar    
   7 C7            -0.4129     3.7106    -0.6642 C.ar    
   8 N8             0.8469     4.1196    -0.6784 N.ar    
   9 C9             1.8605     3.3080    -0.4880 C.ar    
  10 C10            1.6320     1.9411    -0.2565 C.ar    
  11 N11            3.4811    -1.0503     0.3592 N.pl3   
  12 C12            0.8834    -2.1846     0.4403 C.3     
  13 C13            0.8569    -2.4432     1.9247 C.ar    
  14 C14           -0.3043    -2.2142     2.6488 C.ar    
  15 C15           -0.3254    -2.4531     4.0151 C.ar    
  16 C16            0.8093    -2.9184     4.6514 C.ar    
  17 C17            1.9652    -3.1454     3.9278 C.ar    
  18 C18            1.9870    -2.9138     2.5646 C.ar    
  19 O19           -1.4189    -1.7561     2.0207 O.3     
  20 C20           -2.5779    -1.5429     2.8291 C.3     
  21 H21           -0.9713    -0.2699     0.0150 H       
  22 H22           -1.7734     2.0898    -0.4404 H       
  23 H23           -1.2013     4.4303    -0.8283 H       
  24 H24            2.8702     3.6906    -0.5095 H       
  25 H25            4.3784    -0.6911     0.4413 H       
  26 H26            3.3347    -2.0074     0.4175 H       
  27 H27           -0.0668    -2.4890     0.0015 H       
  28 H28            1.6929    -2.7561    -0.0137 H       
  29 H29           -1.2279    -2.2753     4.5809 H       
  30 H30            0.7934    -3.1046     5.7151 H       
  31 H31            2.8513    -3.5084     4.4271 H       
  32 H32            2.8897    -3.0964     2.0006 H       
  33 H33           -2.8712    -2.4820     3.2984 H       
  34 H34           -2.3525    -0.8062     3.6002 H       
  35 H35           -3.3939    -1.1780     2.2053 H       
@<TRIPOS>BOND
   1    1    2 ar
   2    1   10 ar
   3    2    3 ar
   4    2   11 1
   5    3    4 ar
   6    3   12 1
   7    4    5 ar
   8    4   21 1
   9    5    6 ar
  10    5   10 ar
  11    6    7 ar
  12    6   22 1
  13    7    8 ar
  14    7   23 1
  15    8    9 ar
  16    9   10 ar
  17    9   24 1
  18   11   25 1
  19   11   26 1
  20   12   13 1
  21   12   27 1
  22   12   28 1
  23   13   14 ar
  24   13   18 ar
  25   14   15 ar
  26   14   19 1
  27   15   16 ar
  28   15   29 1
  29   16   17 ar
  30   16   30 1
  31   17   18 ar
  32   17   31 1
  33   18   32 1
  34   19   20 1
  35   20   33 1
  36   20   34 1
  37   20   35 1

#	End of record

