#	Name: ASD01580011
#	Creating user name:	WinNT
#	Creation time:	15. 06. 2019 19:22

#	Modifying user name:	WinNT
#	Modification time:	15. 06. 2019 19:22

#	Program:	/corina/corina34_cracker 3.40 0067  02.08.2006

@<TRIPOS>MOLECULE
ASD01580011
  15   15    0    0    0
SMALL
NO_CHARGES


@<TRIPOS>ATOM
   1 C1            -0.0156     1.3008     0.0092 C.2     
   2 N2             0.0021    -0.0041     0.0020 N.2     
   3 C3             1.2741    -0.4291    -0.0124 C.2     
   4 C4             2.0751     0.6534    -0.0142 C.2     
   5 N5             1.2575     1.7511    -0.0005 N.pl3   
   6 C6             1.1123    -2.5965     1.1418 C.2     
   7 C7             1.7275    -1.8663    -0.0240 C.3     
   8 O8             0.3807    -2.0102     1.9040 O.2     
   9 O9             1.3770    -3.8984     1.3336 O.3     
  10 H10           -0.9017     1.9182     0.0169 H       
  11 H11            3.1551     0.6552    -0.0242 H       
  12 H12            1.5398     2.6791     0.0017 H       
  13 H13            1.4141    -2.3386    -0.9550 H       
  14 H14            2.8140    -1.9051     0.0553 H       
  15 H15            0.9593    -4.3238     2.0949 H       
@<TRIPOS>BOND
   1    1    2 2
   2    1    5 1
   3    1   10 1
   4    2    3 1
   5    3    4 2
   6    3    7 1
   7    4    5 1
   8    4   11 1
   9    5   12 1
  10    6    7 1
  11    6    8 2
  12    6    9 1
  13    7   13 1
  14    7   14 1
  15    9   15 1

#	End of record

