#	Name: ASD00960108
#	Creating user name:	WinNT
#	Creation time:	15. 06. 2019 18:53

#	Modifying user name:	WinNT
#	Modification time:	15. 06. 2019 18:53

#	Program:	/corina/corina34_cracker 3.40 0067  02.08.2006

@<TRIPOS>MOLECULE
ASD00960108
  38   40    0    0    0
SMALL
NO_CHARGES


@<TRIPOS>ATOM
   1 C1             0.2868     1.5690    -0.0519 C.3     
   2 C2            -0.0805     0.0703     0.0223 C.3     
   3 O3            -0.3095    -0.3218    -1.3487 O.3     
   4 C4            -1.0281     0.7802    -1.9447 C.3     
   5 C5            -0.8926     0.7426    -3.4682 C.3     
   6 C6             1.0593    -0.7206     0.6108 C.2     
   7 C7             1.2850    -0.8977     1.9308 C.2     
   8 N8             2.0134    -1.3692    -0.1043 N.pl3   
   9 C9             2.8825    -1.9770     0.7638 C.2     
  10 C10            2.4454    -1.6949     2.0650 C.2     
  11 N11            2.2410    -1.5111    -1.4812 N.2     
  12 C12            3.2605    -2.2085    -1.9076 C.2     
  13 N13            4.1096    -2.8021    -1.0748 N.2     
  14 C14            3.9639    -2.7153     0.2370 C.2     
  15 N15            4.8600    -3.3409     1.0821 N.pl3   
  16 C16           -0.3510     2.0467    -1.3756 C.3     
  17 O17            1.7055     1.7355    -0.0908 O.3     
  18 C18            3.0669    -2.1379     3.3156 C.2     
  19 O19           -1.4596    -0.4705    -3.9670 O.3     
  20 O20            3.5574    -3.2484     3.3910 O.2     
  21 O21            3.0951    -1.3142     4.3835 O.3     
  22 N22           -2.4404     0.7367    -1.5580 N.2     
  23 N23           -3.0744    -0.1463    -1.8437 N.1     
  24 N24           -3.7084    -1.0294    -2.1294 N.pl3   
  25 O25           -1.3225     3.0642    -1.1248 O.3     
  26 *26           -0.8053     4.3750    -1.1712 Du      
  27 H27           -0.1370     2.1084     0.7952 H       
  28 H28           -0.9856    -0.0698     0.6133 H       
  29 H29           -1.4181     1.5940    -3.9008 H       
  30 H30            0.1618     0.7898    -3.7405 H       
  31 H31            0.6872    -0.5014     2.7382 H       
  32 H32            3.4182    -2.3061    -2.9716 H       
  33 H33            5.4134    -4.0657     0.7516 H       
  34 H34            4.9356    -3.0554     2.0061 H       
  35 H35            0.4159     2.4100    -2.0598 H       
  36 H36            1.9921     2.6579    -0.1378 H       
  37 H37           -1.4088    -0.5623    -4.9283 H       
  38 H38            3.5159    -1.6507     5.1865 H       
@<TRIPOS>BOND
   1    1    2 1
   2    1   17 1
   3    1   16 1
   4    1   27 1
   5    2    3 1
   6    2    6 1
   7    2   28 1
   8    3    4 1
   9    4    5 1
  10    4   22 1
  11    4   16 1
  12    5   19 1
  13    5   29 1
  14    5   30 1
  15    6    7 2
  16    6    8 1
  17    7   10 1
  18    7   31 1
  19    8    9 1
  20    8   11 1
  21    9   10 2
  22    9   14 1
  23   10   18 1
  24   11   12 2
  25   12   13 1
  26   12   32 1
  27   13   14 2
  28   14   15 1
  29   15   33 1
  30   15   34 1
  31   16   25 1
  32   16   35 1
  33   17   36 1
  34   18   20 2
  35   18   21 1
  36   19   37 1
  37   21   38 1
  38   22   23 2
  39   23   24 2
  40   25   26 1

#	End of record

