#	Name: ASD01811317
#	Creating user name:	WinNT
#	Creation time:	15. 06. 2019 19:26

#	Modifying user name:	WinNT
#	Modification time:	15. 06. 2019 19:26

#	Program:	/corina/corina34_cracker 3.40 0067  02.08.2006

@<TRIPOS>MOLECULE
ASD01811317
  64   68    0    0    0
SMALL
NO_CHARGES


@<TRIPOS>ATOM
   1 C1            -0.2030     1.3902    -0.0320 C.2     
   2 C2            -0.2330    -0.0750     0.1366 C.ar    
   3 C3             0.8597    -0.8600    -0.2630 C.ar    
   4 C4             0.7885    -2.2154    -0.0879 C.ar    
   5 C5            -0.3574    -2.7727     0.4774 C.ar    
   6 N6            -1.3761    -2.0083     0.8465 N.ar    
   7 C7            -1.3461    -0.6999     0.7009 C.ar    
   8 O8             0.7732     1.9262    -0.5202 O.2     
   9 N9            -1.2599     2.1342     0.3499 N.am    
  10 C10           -1.1957     3.5297     0.2773 C.ar    
  11 C11           -2.3420     4.2647    -0.0022 C.ar    
  12 C12           -2.2838     5.6436    -0.0745 C.ar    
  13 C13           -1.0872     6.3003     0.1302 C.ar    
  14 C14            0.0696     5.5715     0.4114 C.ar    
  15 C15            0.0099     4.1800     0.4896 C.ar    
  16 C16           -3.6525     3.5555    -0.2275 C.3     
  17 C17            1.3529     6.2724     0.6306 C.2     
  18 O18            2.3959     5.7531     0.2842 O.2     
  19 N19            1.3663     7.4870     1.2144 N.am    
  20 C20            2.6182     8.2467     1.3333 C.3     
  21 C21            2.8188     8.6402     2.8002 C.3     
  22 C22            1.5798     9.3885     3.2974 C.3     
  23 C23            0.3575     8.4722     3.2059 C.3     
  24 C24            0.1280     8.0793     1.7386 C.3     
  25 C25            1.7874     9.8070     4.7302 C.ar    
  26 C26            1.4996     8.9151     5.7480 C.ar    
  27 C27            1.6917     9.3022     7.0622 C.ar    
  28 C28            2.1743    10.5935     7.3100 C.ar    
  29 C29            2.4404    11.4329     6.2269 C.ar    
  30 N30            2.2458    11.0158     4.9930 N.ar    
  31 C31            2.3906    11.0451     8.6516 C.1     
  32 N32            2.5622    11.4034     9.7159 N.1     
  33 N33           -0.4330    -4.1438     0.6557 N.3     
  34 C34           -1.7201    -4.5272     1.2650 C.3     
  35 C35           -1.7606    -5.7176     0.2965 C.3     
  36 C36           -0.8820    -4.8133    -0.5793 C.3     
  37 H37            1.7367    -0.4048    -0.6991 H       
  38 H38            1.6123    -2.8474    -0.3852 H       
  39 H39           -2.1912    -0.1062     1.0168 H       
  40 H40           -2.0651     1.7021     0.6751 H       
  41 H41           -3.1777     6.2093    -0.2923 H       
  42 H42           -1.0458     7.3779     0.0725 H       
  43 H43            0.9008     3.6111     0.7109 H       
  44 H44           -4.1742     3.4456     0.7232 H       
  45 H45           -4.2672     4.1374    -0.9141 H       
  46 H46           -3.4638     2.5705    -0.6544 H       
  47 H47            3.4533     7.6289     1.0033 H       
  48 H48            2.5603     9.1450     0.7187 H       
  49 H49            2.9670     7.7427     3.4006 H       
  50 H50            3.6929     9.2855     2.8876 H       
  51 H51            1.4179    10.2727     2.6809 H       
  52 H52            0.5289     7.5763     3.8025 H       
  53 H53           -0.5202     8.9979     3.5820 H       
  54 H54           -0.1288     8.9642     1.1563 H       
  55 H55           -0.6804     7.3509     1.6761 H       
  56 H56            1.1284     7.9271     5.5189 H       
  57 H57            1.4747     8.6262     7.8761 H       
  58 H58            2.8130    12.4313     6.4021 H       
  59 H59           -1.6348    -4.8213     2.3111 H       
  60 H60           -2.5149    -3.8012     1.0941 H       
  61 H61           -1.2546    -6.6100     0.6648 H       
  62 H62           -2.7471    -5.9205    -0.1203 H       
  63 H63           -1.4532    -4.1636    -1.2425 H       
  64 H64           -0.0864    -5.3498    -1.0963 H       
@<TRIPOS>BOND
   1    1    2 1
   2    1    8 2
   3    1    9 am
   4    2    3 ar
   5    2    7 ar
   6    3    4 ar
   7    3   37 1
   8    4    5 ar
   9    4   38 1
  10    5    6 ar
  11    5   33 1
  12    6    7 ar
  13    7   39 1
  14    9   10 1
  15    9   40 1
  16   10   11 ar
  17   10   15 ar
  18   11   12 ar
  19   11   16 1
  20   12   13 ar
  21   12   41 1
  22   13   14 ar
  23   13   42 1
  24   14   15 ar
  25   14   17 1
  26   15   43 1
  27   16   44 1
  28   16   45 1
  29   16   46 1
  30   17   18 2
  31   17   19 am
  32   19   20 1
  33   19   24 1
  34   20   21 1
  35   20   47 1
  36   20   48 1
  37   21   22 1
  38   21   49 1
  39   21   50 1
  40   22   23 1
  41   22   25 1
  42   22   51 1
  43   23   24 1
  44   23   52 1
  45   23   53 1
  46   24   54 1
  47   24   55 1
  48   25   26 ar
  49   25   30 ar
  50   26   27 ar
  51   26   56 1
  52   27   28 ar
  53   27   57 1
  54   28   29 ar
  55   28   31 1
  56   29   30 ar
  57   29   58 1
  58   31   32 3
  59   33   34 1
  60   33   36 1
  61   34   35 1
  62   34   59 1
  63   34   60 1
  64   35   36 1
  65   35   61 1
  66   35   62 1
  67   36   63 1
  68   36   64 1

#	End of record

