#	Name: ASD05430311
#	Creating user name:	WinNT
#	Creation time:	15. 06. 2019 21:00

#	Modifying user name:	WinNT
#	Modification time:	15. 06. 2019 21:00

#	Program:	/corina/corina34_cracker 3.40 0067  02.08.2006

@<TRIPOS>MOLECULE
ASD05430311
  57   61    0    0    0
SMALL
NO_CHARGES


@<TRIPOS>ATOM
   1 N1            -0.1448     1.6944     0.0930 N.pl3   
   2 C2            -0.3831     0.2552     0.2277 C.3     
   3 C3             0.4473    -0.4523    -0.8541 C.3     
   4 C4             1.8948     0.0366    -0.7923 C.3     
   5 C5             1.9659     1.5375    -1.0895 C.3     
   6 C6             1.2029     2.2928     0.0029 C.3     
   7 O7             0.9522     3.6467    -0.3910 O.3     
   8 N8            -0.4479     3.8421    -0.2887 N.2     
   9 C9            -1.0517     2.7250    -0.0063 C.2     
  10 C10            1.9253     2.2167     1.3233 C.ar    
  11 C11            3.1504     2.8386     1.4772 C.ar    
  12 C12            1.3598     1.5298     2.3813 C.ar    
  13 C13            2.0210     1.4601     3.5929 C.ar    
  14 C14            3.2504     2.0781     3.7467 C.ar    
  15 C15            3.8136     2.7698     2.6877 C.ar    
  16 F16            3.8976     2.0106     4.9306 F       
  17 C17           -2.5010     2.5829     0.1800 C.2     
  18 C18           -3.3033     3.6568     0.0606 C.2     
  19 C19           -4.7565     3.5143     0.2474 C.ar    
  20 C20           -5.3052     2.2637     0.5491 C.ar    
  21 C21           -5.5909     4.6299     0.1293 C.ar    
  22 C22           -6.9545     4.4907     0.3062 C.ar    
  23 C23           -7.4951     3.2396     0.6016 C.ar    
  24 C24           -6.6656     2.1323     0.7241 C.ar    
  25 N25           -8.8780     3.1004     0.7810 N.pl3   
  26 C26           -9.6690     3.8609     1.5817 C.2     
  27 N27          -10.8969     3.4289     1.4842 N.2     
  28 C28          -10.9374     2.3937     0.6324 C.2     
  29 C29           -9.6890     2.1747     0.1771 C.2     
  30 O30           -7.7688     5.5734     0.1926 O.3     
  31 C31           -7.1471     6.8237    -0.1112 C.3     
  32 C32          -12.1680     1.6137     0.2473 C.3     
  33 H33           -0.0684    -0.0814     1.2155 H       
  34 H34           -1.4416     0.0399     0.0820 H       
  35 H35            0.4204    -1.5289    -0.6860 H       
  36 H36            0.0303    -0.2284    -1.8360 H       
  37 H37            2.2972    -0.1533     0.2027 H       
  38 H38            2.4898    -0.5050    -1.5278 H       
  39 H39            3.0072     1.8596    -1.0973 H       
  40 H40            1.5113     1.7399    -2.0593 H       
  41 H41            3.5894     3.3781     0.6510 H       
  42 H42            0.4009     1.0478     2.2612 H       
  43 H43            1.5787     0.9240     4.4196 H       
  44 H44            4.7726     3.2520     2.8064 H       
  45 H45           -2.9233     1.6166     0.4130 H       
  46 H46           -2.8810     4.6231    -0.1724 H       
  47 H47           -4.6627     1.4009     0.6446 H       
  48 H48           -5.1708     5.5983    -0.0991 H       
  49 H49           -7.0884     1.1651     0.9526 H       
  50 H50           -9.3374     4.6847     2.1964 H       
  51 H51           -9.3841     1.4117    -0.5239 H       
  52 H52           -7.9076     7.6021    -0.1735 H       
  53 H53           -6.4336     7.0749     0.6737 H       
  54 H54           -6.6257     6.7479    -1.0654 H       
  55 H55          -12.6312     2.0736    -0.6257 H       
  56 H56          -11.8884     0.5869     0.0116 H       
  57 H57          -12.8744     1.6165     1.0773 H       
@<TRIPOS>BOND
   1    1    2 1
   2    1    6 1
   3    1    9 1
   4    2    3 1
   5    2   33 1
   6    2   34 1
   7    3    4 1
   8    3   35 1
   9    3   36 1
  10    4    5 1
  11    4   37 1
  12    4   38 1
  13    5    6 1
  14    5   39 1
  15    5   40 1
  16    6    7 1
  17    6   10 1
  18    7    8 1
  19    8    9 2
  20    9   17 1
  21   10   11 ar
  22   10   12 ar
  23   11   15 ar
  24   11   41 1
  25   12   13 ar
  26   12   42 1
  27   13   14 ar
  28   13   43 1
  29   14   15 ar
  30   14   16 1
  31   15   44 1
  32   17   18 2
  33   17   45 1
  34   18   19 1
  35   18   46 1
  36   19   20 ar
  37   19   21 ar
  38   20   24 ar
  39   20   47 1
  40   21   22 ar
  41   21   48 1
  42   22   23 ar
  43   22   30 1
  44   23   24 ar
  45   23   25 1
  46   24   49 1
  47   25   26 1
  48   25   29 1
  49   26   27 2
  50   26   50 1
  51   27   28 1
  52   28   29 2
  53   28   32 1
  54   29   51 1
  55   30   31 1
  56   31   52 1
  57   31   53 1
  58   31   54 1
  59   32   55 1
  60   32   56 1
  61   32   57 1

#	End of record

