#	Name: ASD00069477
#	Creating user name:	WinNT
#	Creation time:	15. 06. 2019 18:29

#	Modifying user name:	WinNT
#	Modification time:	15. 06. 2019 18:29

#	Program:	/corina/corina34_cracker 3.40 0067  02.08.2006

@<TRIPOS>MOLECULE
ASD00069477
  42   43    0    0    0
SMALL
NO_CHARGES


@<TRIPOS>ATOM
   1 O1            -0.0174     1.4305     0.0099 O.3     
   2 B2             0.0021    -0.0041     0.0020 Du      
   3 O3             1.0670    -0.3534    -0.8937 O.3     
   4 C4            -0.9361    -0.9782     0.7993 C.ar    
   5 C5            -1.9328    -0.4839     1.6372 C.ar    
   6 C6            -0.7965    -2.3642     0.6821 C.ar    
   7 C7            -1.6400    -3.1889     1.3982 C.ar    
   8 N8            -2.5711    -2.6879     2.1869 N.ar    
   9 C9            -2.7424    -1.3833     2.3249 C.ar    
  10 N10           -3.7384    -0.9058     3.1690 N.pl3   
  11 C11            2.1089     0.6053    -0.6139 C.3     
  12 C12            1.3736     1.8147    -0.0013 C.3     
  13 C13            1.5763     3.0578    -0.8700 C.3     
  14 C14            1.8670     2.0726     1.4238 C.3     
  15 C15            3.1105     0.0270     0.3877 C.3     
  16 C16            2.8198     1.0122    -1.9062 C.3     
  17 C17           -4.0076     0.5323     3.2443 C.3     
  18 C18           -4.5189    -1.8407     3.9833 C.3     
  19 C19            0.2621    -2.9508    -0.2160 C.3     
  20 H20           -2.0750     0.5805     1.7518 H       
  21 H21           -1.5365    -4.2604     1.3113 H       
  22 H22            1.1819     2.8713    -1.8689 H       
  23 H23            1.0512     3.9024    -0.4239 H       
  24 H24            2.6403     3.2853    -0.9361 H       
  25 H25            2.9371     2.2793     1.4061 H       
  26 H26            1.3383     2.9292     1.8419 H       
  27 H27            1.6771     1.1929     2.0388 H       
  28 H28            3.5790    -0.8603    -0.0381 H       
  29 H29            3.8754     0.7717     0.6077 H       
  30 H30            2.5906    -0.2424     1.3071 H       
  31 H31            2.0954     1.4363    -2.6014 H       
  32 H32            3.5854     1.7548    -1.6813 H       
  33 H33            3.2852     0.1354    -2.3564 H       
  34 H34           -4.2981     0.8996     2.2600 H       
  35 H35           -4.8155     0.7141     3.9530 H       
  36 H36           -3.1093     1.0532     3.5758 H       
  37 H37           -4.0261    -1.9838     4.9449 H       
  38 H38           -5.5182    -1.4360     4.1438 H       
  39 H39           -4.5931    -2.7978     3.4670 H       
  40 H40            1.1823    -3.0915     0.3510 H       
  41 H41           -0.0789    -3.9123    -0.5996 H       
  42 H42            0.4485    -2.2727    -1.0488 H       
@<TRIPOS>BOND
   1    1    2 1
   2    1   12 1
   3    2    3 1
   4    2    4 1
   5    3   11 1
   6    4    5 ar
   7    4    6 ar
   8    5    9 ar
   9    5   20 1
  10    6    7 ar
  11    6   19 1
  12    7    8 ar
  13    7   21 1
  14    8    9 ar
  15    9   10 1
  16   10   17 1
  17   10   18 1
  18   11   12 1
  19   11   15 1
  20   11   16 1
  21   12   13 1
  22   12   14 1
  23   13   22 1
  24   13   23 1
  25   13   24 1
  26   14   25 1
  27   14   26 1
  28   14   27 1
  29   15   28 1
  30   15   29 1
  31   15   30 1
  32   16   31 1
  33   16   32 1
  34   16   33 1
  35   17   34 1
  36   17   35 1
  37   17   36 1
  38   18   37 1
  39   18   38 1
  40   18   39 1
  41   19   40 1
  42   19   41 1
  43   19   42 1

#	End of record

