#	Name: ASD05720124
#	Creating user name:	WinNT
#	Creation time:	15. 06. 2019 21:01

#	Modifying user name:	WinNT
#	Modification time:	15. 06. 2019 21:01

#	Program:	/corina/corina34_cracker 3.40 0067  02.08.2006

@<TRIPOS>MOLECULE
ASD05720124
  71   76    0    0    0
SMALL
NO_CHARGES


@<TRIPOS>ATOM
   1 O1            -0.0161     1.3334     0.0094 O.3     
   2 C2             0.0021    -0.0041     0.0020 C.2     
   3 N3             1.2348    -0.5293    -0.0126 N.am    
   4 C4             2.2183     0.5645    -0.0161 C.3     
   5 C5             1.3508     1.8379    -0.0010 C.3     
   6 O6            -1.0069    -0.6808     0.0087 O.2     
   7 C7             3.0997    -3.5830    -0.0460 C.2     
   8 N8             2.7934    -2.2820    -0.0360 N.2     
   9 C9             1.5348    -1.8852    -0.0223 C.2     
  10 C10            0.4948    -2.8369    -0.0171 C.2     
  11 C11            0.8012    -4.1541    -0.0267 C.2     
  12 N12            2.1143    -4.5345    -0.0412 N.pl3   
  13 N13            2.7294    -5.7914    -0.0540 N.2     
  14 C14            4.0305    -5.6364    -0.0661 C.2     
  15 C15            4.3226    -4.2670    -0.0674 C.2     
  16 C16            5.6706    -3.6561    -0.0859 C.ar    
  17 C17            6.6416    -4.0791     0.8236 C.ar    
  18 C18            7.8955    -3.5104     0.8059 C.ar    
  19 C19            8.1956    -2.5119    -0.1206 C.ar    
  20 C20            7.2260    -2.0887    -1.0296 C.ar    
  21 C21            5.9735    -2.6607    -1.0167 C.ar    
  22 N22           11.2841    -0.6732    -0.6295 N.pl3   
  23 N23            9.9485    -0.9540    -0.9602 N.2     
  24 C24            9.5462    -1.8994    -0.1388 C.2     
  25 N25           10.5590    -2.2168     0.6794 N.2     
  26 C26           11.6044    -1.4870     0.3926 C.2     
  27 C27           12.1589     0.3087    -1.2751 C.3     
  28 O28           13.4420     0.2897    -0.6463 O.3     
  29 C29           14.3762     1.2162    -1.2038 C.3     
  30 C30           15.7076     1.1095    -0.4574 C.3     
  31 Si31          16.9256     2.3173    -1.1842 Si      
  32 C32           16.2576     4.0486    -1.0183 C.3     
  33 C33           18.5466     2.1874    -0.2754 C.3     
  34 C34           17.1904     1.9239    -2.9858 C.3     
  35 C35            3.0621     0.5136    -1.2636 C.ar    
  36 C36            4.4176     0.7766    -1.1918 C.ar    
  37 C37            5.1927     0.7301    -2.3359 C.ar    
  38 C38            4.6099     0.4198    -3.5544 C.ar    
  39 C39            3.2529     0.1569    -3.6240 C.ar    
  40 C40            2.4814     0.1985    -2.4777 C.ar    
  41 F41            5.3657     0.3744    -4.6734 F       
  42 Cl42           6.8946     1.0609    -2.2462 Cl      
  43 H43            2.8457     0.5180     0.8740 H       
  44 H44            1.5314     2.4339    -0.8956 H       
  45 H45            1.5485     2.4243     0.8964 H       
  46 H46           -0.5367    -2.5172    -0.0052 H       
  47 H47            0.0174    -4.8972    -0.0225 H       
  48 H48            4.7584    -6.4342    -0.0770 H       
  49 H49            6.4092    -4.8521     1.5413 H       
  50 H50            8.6466    -3.8373     1.5097 H       
  51 H51            7.4591    -1.3155    -1.7467 H       
  52 H52            5.2243    -2.3363    -1.7238 H       
  53 H53           12.5617    -1.5301     0.8907 H       
  54 H54           12.2679     0.0597    -2.3306 H       
  55 H55           11.7221     1.3028    -1.1795 H       
  56 H56           14.5312     0.9860    -2.2579 H       
  57 H57           13.9854     2.2291    -1.1067 H       
  58 H58           15.5526     1.3397     0.5967 H       
  59 H59           16.0983     0.0966    -0.5545 H       
  60 H60           16.1027     4.2787     0.0358 H       
  61 H61           16.9702     4.7553    -1.4436 H       
  62 H62           15.3092     4.1246    -1.5500 H       
  63 H63           18.9374     1.1745    -0.3725 H       
  64 H64           19.2593     2.8941    -0.7006 H       
  65 H65           18.3917     2.4176     0.7787 H       
  66 H66           16.2420     2.0000    -3.5176 H       
  67 H67           17.9030     2.6306    -3.4111 H       
  68 H68           17.5812     0.9110    -3.0829 H       
  69 H69            4.8710     1.0187    -0.2419 H       
  70 H70            2.7976    -0.0850    -4.5730 H       
  71 H71            1.4233    -0.0113    -2.5314 H       
@<TRIPOS>BOND
   1    1    2 1
   2    1    5 1
   3    2    3 am
   4    2    6 2
   5    3    4 1
   6    3    9 1
   7    4    5 1
   8    4   35 1
   9    4   43 1
  10    5   44 1
  11    5   45 1
  12    7    8 1
  13    7   12 1
  14    7   15 2
  15    8    9 2
  16    9   10 1
  17   10   11 2
  18   10   46 1
  19   11   12 1
  20   11   47 1
  21   12   13 1
  22   13   14 2
  23   14   15 1
  24   14   48 1
  25   15   16 1
  26   16   17 ar
  27   16   21 ar
  28   17   18 ar
  29   17   49 1
  30   18   19 ar
  31   18   50 1
  32   19   20 ar
  33   19   24 1
  34   20   21 ar
  35   20   51 1
  36   21   52 1
  37   22   23 1
  38   22   26 1
  39   22   27 1
  40   23   24 2
  41   24   25 1
  42   25   26 2
  43   26   53 1
  44   27   28 1
  45   27   54 1
  46   27   55 1
  47   28   29 1
  48   29   30 1
  49   29   56 1
  50   29   57 1
  51   30   31 1
  52   30   58 1
  53   30   59 1
  54   31   32 1
  55   31   33 1
  56   31   34 1
  57   32   60 1
  58   32   61 1
  59   32   62 1
  60   33   63 1
  61   33   64 1
  62   33   65 1
  63   34   66 1
  64   34   67 1
  65   34   68 1
  66   35   36 ar
  67   35   40 ar
  68   36   37 ar
  69   36   69 1
  70   37   38 ar
  71   37   42 1
  72   38   39 ar
  73   38   41 1
  74   39   40 ar
  75   39   70 1
  76   40   71 1

#	End of record

