#	Name: ASD02508270
#	Creating user name:	WinNT
#	Creation time:	15. 06. 2019 20:24

#	Modifying user name:	WinNT
#	Modification time:	15. 06. 2019 20:24

#	Program:	/corina/corina34_cracker 3.40 0067  02.08.2006

@<TRIPOS>MOLECULE
ASD02508270
  51   54    0    0    0
SMALL
NO_CHARGES


@<TRIPOS>ATOM
   1 C1            -0.0168     1.3904     0.0097 C.ar    
   2 C2             0.0021    -0.0041     0.0020 C.ar    
   3 C3            -1.1884    -0.7140     0.0096 C.ar    
   4 C4            -2.3921    -0.0368     0.0247 C.ar    
   5 C5            -2.4119     1.3472     0.0319 C.ar    
   6 C6            -1.2296     2.0613     0.0299 C.ar    
   7 S7            -3.9067    -0.9371     0.0343 S.o2    
   8 N8            -4.6559    -0.6207     1.4769 N.am    
   9 C9            -5.5852     0.5106     1.6047 C.3     
  10 O10            1.2720     1.8106    -0.0004 O.3     
  11 C11            2.0840     0.7419    -0.0139 C.2     
  12 N12            1.3438    -0.3844    -0.0128 N.am    
  13 O13           -4.7225    -0.3609    -0.9764 O.2     
  14 O14           -3.5550    -2.3137     0.0583 O.2     
  15 O15            3.2993     0.7835    -0.0252 O.2     
  16 C16            1.8550    -1.7572    -0.0255 C.3     
  17 C17           -6.9279    -0.0148     2.1275 C.3     
  18 N18           -6.6758    -0.8606     3.3026 N.am    
  19 C19           -5.7465    -1.9919     3.1748 C.3     
  20 C20           -4.4081    -1.4698     2.6505 C.3     
  21 S21           -7.4251    -0.5441     4.7452 S.o2    
  22 C22           -8.9399    -1.4440     4.7545 C.ar    
  23 C23           -8.9760    -2.7343     5.2542 C.ar    
  24 C24           -3.7296     2.0783     0.0474 C.3     
  25 C25          -10.0960    -0.8590     4.2673 C.ar    
  26 C26          -11.2859    -1.5672     4.2751 C.ar    
  27 C27          -11.3196    -2.8576     4.7690 C.ar    
  28 C28          -10.1670    -3.4406     5.2609 C.ar    
  29 O29           -6.6095    -1.1209     5.7559 O.2     
  30 O30           -7.7763     0.8326     4.7214 O.2     
  31 F31           -7.8494    -3.3047     5.7346 F       
  32 F32          -10.0635     0.4025     3.7849 F       
  33 H33           -1.1748    -1.7939     0.0033 H       
  34 H34           -1.2502     3.1411     0.0359 H       
  35 H35           -5.1796     1.2398     2.3060 H       
  36 H36           -5.7294     0.9775     0.6303 H       
  37 H37            2.9448    -1.7389    -0.0366 H       
  38 H38            1.5095    -2.2818     0.8652 H       
  39 H39            1.4912    -2.2722    -0.9146 H       
  40 H40           -7.5639     0.8241     2.4102 H       
  41 H41           -7.4177    -0.6032     1.3516 H       
  42 H42           -5.6023    -2.4587     4.1491 H       
  43 H43           -6.1521    -2.7210     2.4734 H       
  44 H44           -3.7731    -2.3096     2.3682 H       
  45 H45           -3.9167    -0.8805     3.4246 H       
  46 H46           -4.0381     2.2493     1.0787 H       
  47 H47           -3.6202     3.0353    -0.4626 H       
  48 H48           -4.4837     1.4789    -0.4627 H       
  49 H49          -12.1881    -1.1109     3.8954 H       
  50 H50          -12.2482    -3.4090     4.7750 H       
  51 H51          -10.1945    -4.4490     5.6466 H       
@<TRIPOS>BOND
   1    1    2 ar
   2    1   10 1
   3    1    6 ar
   4    2    3 ar
   5    2   12 1
   6    3    4 ar
   7    3   33 1
   8    4    5 ar
   9    4    7 1
  10    5    6 ar
  11    5   24 1
  12    6   34 1
  13    7    8 am
  14    7   13 2
  15    7   14 2
  16    8    9 1
  17    8   20 1
  18    9   17 1
  19    9   35 1
  20    9   36 1
  21   10   11 1
  22   11   12 am
  23   11   15 2
  24   12   16 1
  25   16   37 1
  26   16   38 1
  27   16   39 1
  28   17   18 1
  29   17   40 1
  30   17   41 1
  31   18   19 1
  32   18   21 am
  33   19   20 1
  34   19   42 1
  35   19   43 1
  36   20   44 1
  37   20   45 1
  38   21   22 1
  39   21   29 2
  40   21   30 2
  41   22   23 ar
  42   22   25 ar
  43   23   31 1
  44   23   28 ar
  45   24   46 1
  46   24   47 1
  47   24   48 1
  48   25   26 ar
  49   25   32 1
  50   26   27 ar
  51   26   49 1
  52   27   28 ar
  53   27   50 1
  54   28   51 1

#	End of record

