#	Name: ASD03090149
#	Creating user name:	WinNT
#	Creation time:	15. 06. 2019 20:28

#	Modifying user name:	WinNT
#	Modification time:	15. 06. 2019 20:28

#	Program:	/corina/corina34_cracker 3.40 0067  02.08.2006

@<TRIPOS>MOLECULE
ASD03090149
  45   47    0    0    0
SMALL
NO_CHARGES


@<TRIPOS>ATOM
   1 N1             0.4477     1.5149     1.4689 N.ar    
   2 C2             0.4096     0.1968     1.4353 C.ar    
   3 C3             1.5362    -0.5370     1.1249 C.ar    
   4 C4             2.7289     0.1379     0.8434 C.ar    
   5 C5             2.7232     1.5361     0.8902 C.ar    
   6 C6             1.5511     2.1900     1.2101 C.ar    
   7 C7             3.9627    -0.6067     0.5058 C.2     
   8 N8             5.7413    -3.4565    -0.5286 N.pl3   
   9 C9             4.8153    -4.4449    -0.8728 C.ar    
  10 C10            3.5989    -4.0911    -1.4425 C.ar    
  11 C11            2.6862    -5.0706    -1.7819 C.ar    
  12 C12            2.9822    -6.4020    -1.5552 C.ar    
  13 C13            4.1925    -6.7579    -0.9880 C.ar    
  14 C14            5.1117    -5.7841    -0.6512 C.ar    
  15 N15            4.0268    -1.8628     0.1123 N.2     
  16 C16            5.2982    -2.2025    -0.1034 C.2     
  17 N17            6.0668    -1.1676     0.1491 N.2     
  18 N18            5.2219    -0.1167     0.5412 N.pl3   
  19 C19            5.6258     1.2392     0.9216 C.3     
  20 C20            5.7313     2.1105    -0.3316 C.3     
  21 C21            6.1468     3.5052     0.0598 C.2     
  22 N22            6.3042     4.4519    -0.8865 N.am    
  23 O23            6.3397     3.7756     1.2262 O.2     
  24 C24            6.7081     5.8078    -0.5060 C.3     
  25 C25            4.5107    -8.2103    -0.7428 C.3     
  26 F26            3.4375    -9.0010    -1.1675 F       
  27 F27            5.6609    -8.5628    -1.4570 F       
  28 F28            4.7291    -8.4156     0.6237 F       
  29 H29           -0.5159    -0.3151     1.6541 H       
  30 H30            1.4980    -1.6160     1.0999 H       
  31 H31            3.6230     2.0953     0.6798 H       
  32 H32            1.5365     3.2693     1.2485 H       
  33 H33            6.6918    -3.6416    -0.5850 H       
  34 H34            3.3670    -3.0512    -1.6195 H       
  35 H35            1.7401    -4.7962    -2.2246 H       
  36 H36            2.2666    -7.1659    -1.8212 H       
  37 H37            6.0566    -6.0626    -0.2084 H       
  38 H38            4.8834     1.6633     1.5976 H       
  39 H39            6.5938     1.2031     1.4216 H       
  40 H40            6.4738     1.6863    -1.0076 H       
  41 H41            4.7634     2.1465    -0.8315 H       
  42 H42            6.1500     4.2356    -1.8194 H       
  43 H43            5.9657     6.2319     0.1699 H       
  44 H44            7.6761     5.7717    -0.0061 H       
  45 H45            6.7833     6.4285    -1.3988 H       
@<TRIPOS>BOND
   1    1    2 ar
   2    1    6 ar
   3    2    3 ar
   4    2   29 1
   5    3    4 ar
   6    3   30 1
   7    4    5 ar
   8    4    7 1
   9    5    6 ar
  10    5   31 1
  11    6   32 1
  12    7   15 2
  13    7   18 1
  14    8    9 1
  15    8   16 1
  16    8   33 1
  17    9   10 ar
  18    9   14 ar
  19   10   11 ar
  20   10   34 1
  21   11   12 ar
  22   11   35 1
  23   12   13 ar
  24   12   36 1
  25   13   14 ar
  26   13   25 1
  27   14   37 1
  28   15   16 1
  29   16   17 2
  30   17   18 1
  31   18   19 1
  32   19   20 1
  33   19   38 1
  34   19   39 1
  35   20   21 1
  36   20   40 1
  37   20   41 1
  38   21   22 am
  39   21   23 2
  40   22   24 1
  41   22   42 1
  42   24   43 1
  43   24   44 1
  44   24   45 1
  45   25   26 1
  46   25   27 1
  47   25   28 1

#	End of record

