#	Name: ASD03930123
#	Creating user name:	WinNT
#	Creation time:	15. 06. 2019 20:47

#	Modifying user name:	WinNT
#	Modification time:	15. 06. 2019 20:47

#	Program:	/corina/corina34_cracker 3.40 0067  02.08.2006

@<TRIPOS>MOLECULE
ASD03930123
  51   53    0    0    0
SMALL
NO_CHARGES


@<TRIPOS>ATOM
   1 C1            -0.0167     1.3783     0.0096 C.ar    
   2 C2             0.0021    -0.0041     0.0020 C.ar    
   3 C3             1.2080    -0.6769    -0.0131 C.ar    
   4 C4             2.3998     0.0287    -0.0203 C.ar    
   5 C5             2.3810     1.4107    -0.0127 C.ar    
   6 C6             1.1706     2.0837     0.0021 C.ar    
   7 C7             3.8311    -0.4635    -0.0361 C.3     
   8 C8             4.6800     0.7485     0.4028 C.3     
   9 C9             3.7985     1.9418    -0.0229 C.3     
  10 N10            5.9624     0.7698    -0.3051 N.am    
  11 C11           -1.2922    -0.7760     0.0107 C.3     
  12 N12           -1.7253    -1.0187    -1.3676 N.pl3   
  13 C13           -1.3930    -2.1022    -2.1255 C.2     
  14 C14           -1.9800    -1.9686    -3.3322 C.2     
  15 C15           -2.7011    -0.7583    -3.3188 C.2     
  16 C16           -2.5320    -0.2013    -2.1024 C.2     
  17 C17           -1.8826    -2.9361    -4.4835 C.3     
  18 F18           -1.0780    -4.0197    -4.1152 F       
  19 F19           -3.1613    -3.3964    -4.8154 F       
  20 F20           -1.3179    -2.2905    -5.5887 F       
  21 S21            7.3250     1.3094     0.4661 S.o2    
  22 O22            8.3461     1.2116    -0.5173 O.2     
  23 O23            6.9465     2.5679     1.0066 O.2     
  24 C24            7.6015     0.1039     1.7930 C.3     
  25 C25           -3.5167    -0.1933    -4.4531 C.3     
  26 O26           -4.0945     1.0503    -4.0510 O.3     
  27 C27            7.8015    -1.2861     1.1857 C.3     
  28 C28            8.8482     0.4974     2.5878 C.3     
  29 H29           -0.9589     1.9061     0.0169 H       
  30 H30            1.2219    -1.7568    -0.0190 H       
  31 H31            1.1552     3.1635     0.0081 H       
  32 H32            3.9557    -1.2870     0.6671 H       
  33 H33            4.1119    -0.7778    -1.0414 H       
  34 H34            4.8319     0.7447     1.4821 H       
  35 H35            4.0704     2.2746    -1.0246 H       
  36 H36            3.9007     2.7606     0.6893 H       
  37 H37            6.0135     0.4678    -1.2255 H       
  38 H38           -1.1433    -1.7292     0.5180 H       
  39 H39           -2.0549    -0.2005     0.5352 H       
  40 H40           -0.7673    -2.9253    -1.8135 H       
  41 H41           -2.9564     0.7346    -1.7701 H       
  42 H42            6.7370     0.0894     2.4567 H       
  43 H43           -2.8733    -0.0322    -5.3181 H       
  44 H44           -4.3091    -0.8943    -4.7151 H       
  45 H45           -4.6343     1.4721    -4.7334 H       
  46 H46            8.6660    -1.2717     0.5220 H       
  47 H47            7.9677    -2.0105     1.9831 H       
  48 H48            6.9133    -1.5664     0.6195 H       
  49 H49            8.7058     1.4876     3.0205 H       
  50 H50            9.0144    -0.2270     3.3852 H       
  51 H51            9.7127     0.5118     1.9241 H       
@<TRIPOS>BOND
   1    1    2 ar
   2    1    6 ar
   3    1   29 1
   4    2    3 ar
   5    2   11 1
   6    3    4 ar
   7    3   30 1
   8    4    5 ar
   9    4    7 1
  10    5    6 ar
  11    5    9 1
  12    6   31 1
  13    7    8 1
  14    7   32 1
  15    7   33 1
  16    8    9 1
  17    8   10 1
  18    8   34 1
  19    9   35 1
  20    9   36 1
  21   10   21 am
  22   10   37 1
  23   11   12 1
  24   11   38 1
  25   11   39 1
  26   12   13 1
  27   12   16 1
  28   13   14 2
  29   13   40 1
  30   14   15 1
  31   14   17 1
  32   15   16 2
  33   15   25 1
  34   16   41 1
  35   17   18 1
  36   17   19 1
  37   17   20 1
  38   21   22 2
  39   21   23 2
  40   21   24 1
  41   24   27 1
  42   24   28 1
  43   24   42 1
  44   25   26 1
  45   25   43 1
  46   25   44 1
  47   26   45 1
  48   27   46 1
  49   27   47 1
  50   27   48 1
  51   28   49 1
  52   28   50 1
  53   28   51 1

#	End of record

