#	Name: ASD02030287
#	Creating user name:	WinNT
#	Creation time:	15. 06. 2019 20:15

#	Modifying user name:	WinNT
#	Modification time:	15. 06. 2019 20:15

#	Program:	/corina/corina34_cracker 3.40 0067  02.08.2006

@<TRIPOS>MOLECULE
ASD02030287
  59   63    0    0    0
SMALL
NO_CHARGES


@<TRIPOS>ATOM
   1 N1            -0.0334     1.2426     0.3461 N.am    
   2 C2            -0.2599    -0.2093     0.3685 C.3     
   3 C3            -1.3014    -0.5262     1.4488 C.3     
   4 N4            -2.4536     0.3677     1.2670 N.am    
   5 C5            -2.2271     1.8196     1.2446 C.3     
   6 C6            -1.1864     2.1367     0.1698 C.3     
   7 C7             1.2088     1.7453     0.4902 C.2     
   8 C8             2.3395     0.8445     0.7994 C.2     
   9 N9             3.5689     1.2159     1.0850 N.2     
  10 N10            2.2912    -0.4996     0.8441 N.2     
  11 C11            3.4914    -0.9219     1.1504 C.2     
  12 N12            4.2798     0.1625     1.2981 N.pl3   
  13 C13            5.6418     0.1464     1.6276 C.ar    
  14 O14            1.3994     2.9394     0.3660 O.2     
  15 C15           -3.6958    -0.1350     1.1229 C.2     
  16 C16           -3.8951    -1.5874     1.0416 C.2     
  17 O17           -4.6521     0.6148     1.0601 O.2     
  18 C18            6.3419     1.3388     1.7497 C.ar    
  19 C19            7.6855     1.3194     2.0749 C.ar    
  20 C20            8.3318     0.1128     2.2779 C.ar    
  21 C21            7.6362    -1.0761     2.1563 C.ar    
  22 C22            6.2924    -1.0624     1.8382 C.ar    
  23 C23           -0.7348     3.5922     0.3058 C.3     
  24 Cl24           8.5625     2.8098     2.2280 Cl      
  25 C25           -5.0755    -2.2005     0.7635 C.2     
  26 C26           -4.8021    -3.6361     0.7871 C.ar    
  27 C27           -3.4321    -3.7590     1.0883 C.ar    
  28 O28           -2.9320    -2.5154     1.2260 O.3     
  29 C29           -5.5821    -4.7784     0.5839 C.ar    
  30 C30           -5.0116    -6.0145     0.6784 C.ar    
  31 C31           -3.6562    -6.1444     0.9766 C.ar    
  32 C32           -2.8691    -5.0250     1.1807 C.ar    
  33 C33           -6.3989    -1.5348     0.4871 C.3     
  34 O34           -3.1031    -7.3815     1.0681 O.3     
  35 C35           -3.9684    -8.4970     0.8470 C.3     
  36 H36           -0.6296    -0.5369    -0.6032 H       
  37 H37            0.6740    -0.7218     0.5991 H       
  38 H38           -1.6240    -1.5630     1.3531 H       
  39 H39           -0.8659    -0.3657     2.4351 H       
  40 H40           -3.1610     2.3321     1.0139 H       
  41 H41           -1.8575     2.1472     2.2163 H       
  42 H42           -1.6195     1.9762    -0.8175 H       
  43 H43            3.7948    -1.9518     1.2671 H       
  44 H44            5.8376     2.2805     1.5906 H       
  45 H45            9.3815     0.0996     2.5315 H       
  46 H46            8.1434    -2.0164     2.3146 H       
  47 H47            5.7499    -1.9915     1.7438 H       
  48 H48           -0.1950     3.7190     1.2443 H       
  49 H49           -0.0805     3.8490    -0.5273 H       
  50 H50           -1.6072     4.2456     0.2974 H       
  51 H51           -6.6329    -4.6829     0.3533 H       
  52 H52           -5.6138    -6.8971     0.5214 H       
  53 H53           -1.8199    -5.1356     1.4113 H       
  54 H54           -6.4955    -1.3484    -0.5825 H       
  55 H55           -7.2088    -2.1853     0.8172 H       
  56 H56           -6.4497    -0.5891     1.0267 H       
  57 H57           -4.7750    -8.4820     1.5800 H       
  58 H58           -4.3886    -8.4376    -0.1570 H       
  59 H59           -3.4016    -9.4224     0.9495 H       
@<TRIPOS>BOND
   1    1    2 1
   2    1    7 am
   3    1    6 1
   4    2    3 1
   5    2   36 1
   6    2   37 1
   7    3    4 1
   8    3   38 1
   9    3   39 1
  10    4    5 1
  11    4   15 am
  12    5    6 1
  13    5   40 1
  14    5   41 1
  15    6   23 1
  16    6   42 1
  17    7    8 1
  18    7   14 2
  19    8    9 2
  20    8   10 1
  21    9   12 1
  22   10   11 2
  23   11   12 1
  24   11   43 1
  25   12   13 1
  26   13   18 ar
  27   13   22 ar
  28   15   16 1
  29   15   17 2
  30   16   25 2
  31   16   28 1
  32   18   19 ar
  33   18   44 1
  34   19   20 ar
  35   19   24 1
  36   20   21 ar
  37   20   45 1
  38   21   22 ar
  39   21   46 1
  40   22   47 1
  41   23   48 1
  42   23   49 1
  43   23   50 1
  44   25   26 1
  45   25   33 1
  46   26   27 ar
  47   26   29 ar
  48   27   28 1
  49   27   32 ar
  50   29   30 ar
  51   29   51 1
  52   30   31 ar
  53   30   52 1
  54   31   32 ar
  55   31   34 1
  56   32   53 1
  57   33   54 1
  58   33   55 1
  59   33   56 1
  60   34   35 1
  61   35   57 1
  62   35   58 1
  63   35   59 1

#	End of record

