#	Name: ASD01900460
#	Creating user name:	WinNT
#	Creation time:	15. 06. 2019 19:52

#	Modifying user name:	WinNT
#	Modification time:	15. 06. 2019 19:52

#	Program:	/corina/corina34_cracker 3.40 0067  02.08.2006

@<TRIPOS>MOLECULE
ASD01900460
  24   26    0    0    0
SMALL
NO_CHARGES


@<TRIPOS>ATOM
   1 N1             0.0039     1.3903    -0.2338 N.2     
   2 N2             0.0370    -0.0023    -0.3449 N.pl3   
   3 C3             1.3635    -0.4048    -0.3008 C.2     
   4 C4             2.1159     0.7416    -0.1642 C.2     
   5 C5             1.2262     1.8413    -0.1264 C.2     
   6 C6             2.1403    -1.5697    -0.3507 C.2     
   7 C7             3.4502    -1.3883    -0.2605 C.2     
   8 S8             3.8235     0.3201    -0.1000 S.3     
   9 N9             1.5933     3.1861     0.0035 N.pl3   
  10 C10            0.6221     4.1878    -0.0873 C.ar    
  11 C11            0.7927     5.3859     0.5948 C.ar    
  12 C12           -0.1685     6.3745     0.5030 C.ar    
  13 C13           -1.3016     6.1709    -0.2689 C.ar    
  14 C14           -1.4728     4.9775    -0.9490 C.ar    
  15 C15           -0.5118     3.9886    -0.8641 C.ar    
  16 F16           -2.2405     7.1383    -0.3572 F       
  17 Cl17           0.0431     7.8721     1.3552 Cl      
  18 H18           -0.7328    -0.5852    -0.4368 H       
  19 H19            1.7008    -2.5507    -0.4555 H       
  20 H20            4.1846    -2.1798    -0.2828 H       
  21 H21            2.5214     3.4229     0.1566 H       
  22 H22            1.6754     5.5444     1.1964 H       
  23 H23           -2.3566     4.8208    -1.5495 H       
  24 H24           -0.6443     3.0593    -1.3984 H       
@<TRIPOS>BOND
   1    1    2 1
   2    1    5 2
   3    2    3 1
   4    2   18 1
   5    3    4 2
   6    3    6 1
   7    4    5 1
   8    4    8 1
   9    5    9 1
  10    6    7 2
  11    6   19 1
  12    7    8 1
  13    7   20 1
  14    9   10 1
  15    9   21 1
  16   10   11 ar
  17   10   15 ar
  18   11   12 ar
  19   11   22 1
  20   12   13 ar
  21   12   17 1
  22   13   14 ar
  23   13   16 1
  24   14   15 ar
  25   14   23 1
  26   15   24 1

#	End of record

