#	Name: ASD04882332
#	Creating user name:	WinNT
#	Creation time:	15. 06. 2019 20:54

#	Modifying user name:	WinNT
#	Modification time:	15. 06. 2019 20:54

#	Program:	/corina/corina34_cracker 3.40 0067  02.08.2006

@<TRIPOS>MOLECULE
ASD04882332
  72   76    0    0    0
SMALL
NO_CHARGES


@<TRIPOS>ATOM
   1 N1            -0.0169     1.3967     0.0097 N.am    
   2 C2             0.1106     0.0023    -0.0343 C.ar    
   3 C3            -1.0263    -0.8069     0.0453 C.ar    
   4 C4            -0.9012    -2.1907     0.0018 C.ar    
   5 C5             0.3426    -2.7694    -0.1194 C.ar    
   6 C6             1.4837    -1.9661    -0.1990 C.ar    
   7 C7             1.3602    -0.5743    -0.1621 C.ar    
   8 N8            -2.2858    -0.2261     0.1688 N.3     
   9 C9            -3.1516    -0.6014    -0.9578 C.3     
  10 C10           -2.9084    -0.5861     1.4504 C.3     
  11 C11           -4.2526     0.1339     1.5815 C.3     
  12 N12           -5.1184    -0.2414     0.4549 N.3     
  13 C13           -4.4958     0.1186    -0.8266 C.3     
  14 C14            2.8160    -2.5862    -0.3283 C.2     
  15 O15            3.8082    -1.8866    -0.3975 O.2     
  16 C16            0.9205     2.1775    -0.5630 C.2     
  17 C17            0.7435     3.6328    -0.5941 C.2     
  18 O18            1.9141     1.6747    -1.0544 O.2     
  19 N19            2.9336    -3.9282    -0.3696 N.am    
  20 C20            1.6111     4.5352    -1.1398 C.2     
  21 C21            1.0461     5.8056    -0.9468 C.2     
  22 C22           -0.1266     5.6253    -0.3001 C.2     
  23 O23           -0.3079     4.3144    -0.0938 O.3     
  24 C24            4.2566    -4.5441    -0.4980 C.3     
  25 C25            4.1125    -6.0440    -0.5205 C.ar    
  26 C26           -6.3818     0.3411     0.5788 C.ar    
  27 C27           -6.5095     1.7234     0.6230 C.ar    
  28 C28           -7.5140    -0.4607     0.6524 C.ar    
  29 C29           -8.7615     0.1185     0.7749 C.ar    
  30 C30           -8.8847     1.4952     0.8239 C.ar    
  31 C31           -7.7604     2.2963     0.7456 C.ar    
  32 C32           -7.3808    -1.9608     0.5981 C.3     
  33 C33            3.9437    -6.7040    -1.7230 C.ar    
  34 C34            3.8114    -8.0801    -1.7436 C.ar    
  35 C35            3.8485    -8.7957    -0.5617 C.ar    
  36 C36            4.0183    -8.1356     0.6411 C.ar    
  37 C37            4.1548    -6.7603     0.6613 C.ar    
  38 C38            4.0582    -8.9158     1.9298 C.3     
  39 N39            5.4446    -9.3004     2.2266 N.3     
  40 H40           -0.7819     1.8002     0.4489 H       
  41 H41           -1.7815    -2.8134     0.0635 H       
  42 H42            0.4365    -3.8448    -0.1525 H       
  43 H43            2.2401     0.0489    -0.2235 H       
  44 H44           -2.6747    -0.3133    -1.8946 H       
  45 H45           -3.3139    -1.6792    -0.9484 H       
  46 H46           -3.0679    -1.6637     1.4872 H       
  47 H47           -2.2542    -0.2868     2.2692 H       
  48 H48           -4.7296    -0.1542     2.5184 H       
  49 H49           -4.0903     1.2117     1.5721 H       
  50 H50           -4.3363     1.1962    -0.8634 H       
  51 H51           -5.1500    -0.1807    -1.6455 H       
  52 H52            2.1421    -4.4863    -0.3144 H       
  53 H53            2.5502     4.3143    -1.6251 H       
  54 H54            1.4692     6.7496    -1.2570 H       
  55 H55           -0.8075     6.4089    -0.0023 H       
  56 H56            4.7246    -4.2101    -1.4240 H       
  57 H57            4.8773    -4.2513     0.3489 H       
  58 H58           -5.6318     2.3497     0.5619 H       
  59 H59           -9.6420    -0.5042     0.8322 H       
  60 H60           -9.8616     1.9457     0.9190 H       
  61 H61           -7.8601     3.3710     0.7842 H       
  62 H62           -7.2614    -2.3518     1.6086 H       
  63 H63           -8.2756    -2.3889     0.1463 H       
  64 H64           -6.5090    -2.2268     0.0003 H       
  65 H65            3.9147    -6.1449    -2.6465 H       
  66 H66            3.6788    -8.5958    -2.6832 H       
  67 H67            3.7445    -9.8706    -0.5778 H       
  68 H68            4.2875    -6.2446     1.6009 H       
  69 H69            3.6709    -8.2985     2.7404 H       
  70 H70            3.4458    -9.8120     1.8310 H       
  71 H71            5.4980    -9.8251     3.0867 H       
  72 H72            5.8477    -9.8192     1.4609 H       
@<TRIPOS>BOND
   1    1    2 1
   2    1   16 am
   3    1   40 1
   4    2    3 ar
   5    2    7 ar
   6    3    4 ar
   7    3    8 1
   8    4    5 ar
   9    4   41 1
  10    5    6 ar
  11    5   42 1
  12    6    7 ar
  13    6   14 1
  14    7   43 1
  15    8    9 1
  16    8   10 1
  17    9   13 1
  18    9   44 1
  19    9   45 1
  20   10   11 1
  21   10   46 1
  22   10   47 1
  23   11   12 1
  24   11   48 1
  25   11   49 1
  26   12   13 1
  27   12   26 1
  28   13   50 1
  29   13   51 1
  30   14   15 2
  31   14   19 am
  32   16   18 2
  33   16   17 1
  34   17   20 2
  35   17   23 1
  36   19   24 1
  37   19   52 1
  38   20   21 1
  39   20   53 1
  40   21   22 2
  41   21   54 1
  42   22   23 1
  43   22   55 1
  44   24   25 1
  45   24   56 1
  46   24   57 1
  47   25   33 ar
  48   25   37 ar
  49   26   27 ar
  50   26   28 ar
  51   27   31 ar
  52   27   58 1
  53   28   29 ar
  54   28   32 1
  55   29   30 ar
  56   29   59 1
  57   30   31 ar
  58   30   60 1
  59   31   61 1
  60   32   62 1
  61   32   63 1
  62   32   64 1
  63   33   34 ar
  64   33   65 1
  65   34   35 ar
  66   34   66 1
  67   35   36 ar
  68   35   67 1
  69   36   37 ar
  70   36   38 1
  71   37   68 1
  72   38   39 1
  73   38   69 1
  74   38   70 1
  75   39   71 1
  76   39   72 1

#	End of record

