#	Name: ASD01884602
#	Creating user name:	WinNT
#	Creation time:	15. 06. 2019 19:48

#	Modifying user name:	WinNT
#	Modification time:	15. 06. 2019 19:48

#	Program:	/corina/corina34_cracker 3.40 0067  02.08.2006

@<TRIPOS>MOLECULE
ASD01884602
  38   40    0    0    0
SMALL
NO_CHARGES


@<TRIPOS>ATOM
   1 C1            -0.0164     1.3575     0.0095 C.2     
   2 C2             0.0021    -0.0041     0.0020 C.2     
   3 C3             1.2441    -0.6750    -0.0134 C.2     
   4 C4             2.4025     0.0467    -0.0206 C.2     
   5 N5             2.3701     1.4022    -0.0130 N.am    
   6 C6             1.1988     2.0651     0.0017 C.2     
   7 O7             1.1913     3.2854     0.0083 O.2     
   8 C8             3.6267     2.1552    -0.0205 C.3     
   9 C9             1.2900    -2.1582    -0.0214 C.ar    
  10 C10            4.0446     2.4211    -1.4438 C.ar    
  11 C11            3.6209     3.5699    -2.0854 C.ar    
  12 C12            4.0042     3.8137    -3.3910 C.ar    
  13 C13            4.8115     2.9090    -4.0548 C.ar    
  14 C14            5.2359     1.7607    -3.4129 C.ar    
  15 C15            4.8562     1.5189    -2.1059 C.ar    
  16 C16            5.2285     3.1744    -5.4784 C.3     
  17 C17            0.8131    -2.8784     1.0721 C.ar    
  18 C18            1.8048    -2.8360    -1.1246 C.ar    
  19 C19            1.8451    -4.2156    -1.1266 C.ar    
  20 C20            1.3756    -4.9253    -0.0361 C.ar    
  21 C21            0.8582    -4.2577     1.0594 C.ar    
  22 H22           -0.9563     1.8894     0.0168 H       
  23 H23           -0.9217    -0.5636     0.0082 H       
  24 H24            3.3529    -0.4662    -0.0321 H       
  25 H25            3.4856     3.1026     0.4997 H       
  26 H26            4.4005     1.5758     0.4831 H       
  27 H27            2.9902     4.2767    -1.5668 H       
  28 H28            3.6726     4.7109    -3.8925 H       
  29 H29            5.8663     1.0537    -3.9316 H       
  30 H30            5.1877     0.6218    -1.6043 H       
  31 H31            6.1630     3.7353    -5.4847 H       
  32 H32            5.3700     2.2268    -5.9982 H       
  33 H33            4.4540     3.7529    -5.9821 H       
  34 H34            0.4093    -2.3581     1.9281 H       
  35 H35            2.1713    -2.2828    -1.9767 H       
  36 H36            2.2436    -4.7419    -1.9813 H       
  37 H37            1.4090    -6.0048    -0.0418 H       
  38 H38            0.4934    -4.8168     1.9083 H       
@<TRIPOS>BOND
   1    1    2 2
   2    1    6 1
   3    1   22 1
   4    2    3 1
   5    2   23 1
   6    3    4 2
   7    3    9 1
   8    4    5 1
   9    4   24 1
  10    5    6 am
  11    5    8 1
  12    6    7 2
  13    8   10 1
  14    8   25 1
  15    8   26 1
  16    9   17 ar
  17    9   18 ar
  18   10   11 ar
  19   10   15 ar
  20   11   12 ar
  21   11   27 1
  22   12   13 ar
  23   12   28 1
  24   13   14 ar
  25   13   16 1
  26   14   15 ar
  27   14   29 1
  28   15   30 1
  29   16   31 1
  30   16   32 1
  31   16   33 1
  32   17   21 ar
  33   17   34 1
  34   18   19 ar
  35   18   35 1
  36   19   20 ar
  37   19   36 1
  38   20   21 ar
  39   20   37 1
  40   21   38 1

#	End of record

