#	Name: ASD01883555
#	Creating user name:	WinNT
#	Creation time:	15. 06. 2019 19:46

#	Modifying user name:	WinNT
#	Modification time:	15. 06. 2019 19:46

#	Program:	/corina/corina34_cracker 3.40 0067  02.08.2006

@<TRIPOS>MOLECULE
ASD01883555
  59   61    0    0    0
SMALL
NO_CHARGES


@<TRIPOS>ATOM
   1 C1            -0.4369     2.5868     1.0854 C.2     
   2 C2            -1.4352     2.7075     0.0951 C.2     
   3 C3            -2.6759     2.2339     0.3331 C.2     
   4 N4            -2.9815     1.6395     1.5173 N.am    
   5 C5            -2.0581     1.5055     2.4871 C.2     
   6 C6            -0.7555     1.9745     2.2871 C.2     
   7 O7            -2.3568     0.9682     3.5427 O.2     
   8 N8             0.8410     3.0672     0.8580 N.pl3   
   9 C9             1.0764     4.5037     0.6590 C.3     
  10 C10            1.8434     4.7007    -0.6524 C.3     
  11 C11            3.1172     3.8528    -0.6260 C.3     
  12 C12            2.7449     2.3736    -0.5016 C.3     
  13 C13            1.9889     2.1509     0.8171 C.3     
  14 C14           -4.3392     1.1367     1.7413 C.3     
  15 C15            3.8916     4.0702    -1.9004 C.ar    
  16 C16            5.1365     4.6691    -1.8589 C.ar    
  17 C17            5.8469     4.8686    -3.0281 C.ar    
  18 C18            5.3124     4.4686    -4.2383 C.ar    
  19 C19            4.0675     3.8687    -4.2797 C.ar    
  20 C20            3.3592     3.6653    -3.1104 C.ar    
  21 C21           -4.4275    -0.3181     1.2760 C.3     
  22 C22           -5.8454    -0.8432     1.5100 C.3     
  23 Cl23           0.4415     1.8056     3.5330 Cl      
  24 C24           -5.9338    -2.2980     1.0447 C.3     
  25 C25            5.7193     5.1052    -0.5394 C.3     
  26 C26            5.8691     3.8902     0.3784 C.3     
  27 O27            7.0010     5.6983    -0.7575 O.3     
  28 C28            4.7890     6.1279     0.1160 C.3     
  29 H29           -1.2067     3.1777    -0.8499 H       
  30 H30           -3.4370     2.3286    -0.4273 H       
  31 H31            0.1215     5.0265     0.6058 H       
  32 H32            1.6644     4.8961     1.4887 H       
  33 H33            1.2179     4.3914    -1.4897 H       
  34 H34            2.1085     5.7520    -0.7645 H       
  35 H35            3.7307     4.1455     0.2261 H       
  36 H36            2.1109     2.0862    -1.3403 H       
  37 H37            3.6516     1.7686    -0.5063 H       
  38 H38            2.6533     2.3513     1.6576 H       
  39 H39            1.6348     1.1212     0.8659 H       
  40 H40           -4.5770     1.1935     2.8036 H       
  41 H41           -5.0486     1.7423     1.1773 H       
  42 H42            6.8194     5.3373    -2.9958 H       
  43 H43            5.8670     4.6251    -5.1517 H       
  44 H44            3.6497     3.5565    -5.2254 H       
  45 H45            2.3867     3.1966    -3.1427 H       
  46 H46           -4.1897    -0.3749     0.2138 H       
  47 H47           -3.7181    -0.9237     1.8401 H       
  48 H48           -6.0832    -0.7864     2.5723 H       
  49 H49           -6.5548    -0.2376     0.9460 H       
  50 H50           -5.6960    -2.3549    -0.0175 H       
  51 H51           -5.2244    -2.9036     1.6088 H       
  52 H52           -6.9439    -2.6721     1.2114 H       
  53 H53            6.7325     3.3030     0.0659 H       
  54 H54            6.0107     4.2262     1.4057 H       
  55 H55            4.9707     3.2760     0.3177 H       
  56 H56            6.9820     6.4759    -1.3319 H       
  57 H57            3.8304     5.6582     0.3364 H       
  58 H58            5.2387     6.4874     1.0415 H       
  59 H59            4.6351     6.9666    -0.5630 H       
@<TRIPOS>BOND
   1    1    2 1
   2    1    8 1
   3    1    6 2
   4    2    3 2
   5    2   29 1
   6    3    4 1
   7    3   30 1
   8    4    5 am
   9    4   14 1
  10    5    6 1
  11    5    7 2
  12    6   23 1
  13    8    9 1
  14    8   13 1
  15    9   10 1
  16    9   31 1
  17    9   32 1
  18   10   11 1
  19   10   33 1
  20   10   34 1
  21   11   15 1
  22   11   12 1
  23   11   35 1
  24   12   13 1
  25   12   36 1
  26   12   37 1
  27   13   38 1
  28   13   39 1
  29   14   21 1
  30   14   40 1
  31   14   41 1
  32   15   16 ar
  33   15   20 ar
  34   16   17 ar
  35   16   25 1
  36   17   18 ar
  37   17   42 1
  38   18   19 ar
  39   18   43 1
  40   19   20 ar
  41   19   44 1
  42   20   45 1
  43   21   22 1
  44   21   46 1
  45   21   47 1
  46   22   24 1
  47   22   48 1
  48   22   49 1
  49   24   50 1
  50   24   51 1
  51   24   52 1
  52   25   26 1
  53   25   27 1
  54   25   28 1
  55   26   53 1
  56   26   54 1
  57   26   55 1
  58   27   56 1
  59   28   57 1
  60   28   58 1
  61   28   59 1

#	End of record

