#	Name: ASD05720216
#	Creating user name:	WinNT
#	Creation time:	15. 06. 2019 21:02

#	Modifying user name:	WinNT
#	Modification time:	15. 06. 2019 21:02

#	Program:	/corina/corina34_cracker 3.40 0067  02.08.2006

@<TRIPOS>MOLECULE
ASD05720216
  49   54    0    0    0
SMALL
NO_CHARGES


@<TRIPOS>ATOM
   1 O1            -0.0161     1.3334     0.0094 O.3     
   2 C2             0.0021    -0.0041     0.0020 C.2     
   3 N3             1.2348    -0.5293    -0.0126 N.am    
   4 C4             2.2183     0.5645    -0.0161 C.3     
   5 C5             1.3508     1.8379    -0.0010 C.3     
   6 O6            -1.0069    -0.6808     0.0087 O.2     
   7 C7             3.0621     0.5136    -1.2636 C.ar    
   8 C8             4.3275     1.0700    -1.2549 C.ar    
   9 C9             5.0964     1.0186    -2.4068 C.ar    
  10 C10            4.5606     0.4054    -3.5318 C.ar    
  11 C11            3.2857    -0.1295    -3.4644 C.ar    
  12 N12            2.5864    -0.0658    -2.3482 N.ar    
  13 F13            5.2740     0.3325    -4.6768 F       
  14 C14            3.0997    -3.5829    -0.0451 C.2     
  15 N15            2.7934    -2.2820    -0.0360 N.2     
  16 C16            1.5348    -1.8852    -0.0223 C.2     
  17 C17            0.4949    -2.8369    -0.0171 C.2     
  18 C18            0.8012    -4.1541    -0.0262 C.2     
  19 N19            2.1144    -4.5345    -0.0403 N.pl3   
  20 N20            2.7295    -5.7914    -0.0521 N.2     
  21 C21            4.0306    -5.6366    -0.0636 C.2     
  22 C22            4.3228    -4.2670    -0.0655 C.2     
  23 C23            5.6705    -3.6564    -0.0838 C.ar    
  24 C24            6.6406    -4.0797     0.8271 C.ar    
  25 C25            7.8960    -3.5111     0.8103 C.ar    
  26 C26            8.1970    -2.5096    -0.1204 C.ar    
  27 C27            7.2243    -2.0881    -1.0307 C.ar    
  28 C28            5.9732    -2.6612    -1.0158 C.ar    
  29 F29            8.8352    -3.9196     1.6915 F       
  30 O30            9.9667    -0.9285    -0.9783 O.3     
  31 C31            9.5405    -1.8990    -0.1398 C.2     
  32 N32           10.5410    -2.1979     0.6536 N.2     
  33 N33           11.5574    -1.4687     0.3529 N.2     
  34 C34           11.2464    -0.6753    -0.6443 C.2     
  35 N35           12.0795     0.2507    -1.2425 N.pl3   
  36 H36            2.8457     0.5180     0.8740 H       
  37 H37            1.5314     2.4339    -0.8956 H       
  38 H38            1.5485     2.4243     0.8964 H       
  39 H39            4.7121     1.5394    -0.3615 H       
  40 H40            6.0883     1.4453    -2.4291 H       
  41 H41            2.8608    -0.6083    -4.3343 H       
  42 H42           -0.5367    -2.5172    -0.0055 H       
  43 H43            0.0175    -4.8972    -0.0220 H       
  44 H44            4.7583    -6.4345    -0.0742 H       
  45 H45            6.4071    -4.8521     1.5449 H       
  46 H46            7.4557    -1.3155    -1.7490 H       
  47 H47            5.2233    -2.3383    -1.7228 H       
  48 H48           11.7533     0.7929    -1.9777 H       
  49 H49           12.9904     0.3585    -0.9272 H       
@<TRIPOS>BOND
   1    1    2 1
   2    1    5 1
   3    2    3 am
   4    2    6 2
   5    3    4 1
   6    3   16 1
   7    4    5 1
   8    4    7 1
   9    4   36 1
  10    5   37 1
  11    5   38 1
  12    7    8 ar
  13    7   12 ar
  14    8    9 ar
  15    8   39 1
  16    9   10 ar
  17    9   40 1
  18   10   11 ar
  19   10   13 1
  20   11   12 ar
  21   11   41 1
  22   14   15 1
  23   14   19 1
  24   14   22 2
  25   15   16 2
  26   16   17 1
  27   17   18 2
  28   17   42 1
  29   18   19 1
  30   18   43 1
  31   19   20 1
  32   20   21 2
  33   21   22 1
  34   21   44 1
  35   22   23 1
  36   23   24 ar
  37   23   28 ar
  38   24   25 ar
  39   24   45 1
  40   25   26 ar
  41   25   29 1
  42   26   27 ar
  43   26   31 1
  44   27   28 ar
  45   27   46 1
  46   28   47 1
  47   30   31 1
  48   30   34 1
  49   31   32 2
  50   32   33 1
  51   33   34 2
  52   34   35 1
  53   35   48 1
  54   35   49 1

#	End of record

