#	Name: ASD08178312
#	Creating user name:	WinNT
#	Creation time:	15. 06. 2019 21:18

#	Modifying user name:	WinNT
#	Modification time:	15. 06. 2019 21:18

#	Program:	/corina/corina34_cracker 3.40 0067  02.08.2006

@<TRIPOS>MOLECULE
ASD08178312
  66   70    0    0    0
SMALL
NO_CHARGES


@<TRIPOS>ATOM
   1 N1            -0.0168     1.3902     0.0097 N.am    
   2 C2            -0.2172     0.0103     0.0230 C.ar    
   3 C3             0.8687    -0.8560    -0.0926 C.ar    
   4 N4            -1.4395    -0.4831     0.1512 N.ar    
   5 N5            -1.6665    -1.7463     0.1680 N.ar    
   6 C6            -0.7003    -2.6366     0.0592 C.ar    
   7 C7             0.6164    -2.2189    -0.0739 C.ar    
   8 C8            -1.0250    -4.1080     0.0858 C.3     
   9 C9            -1.8117    -4.4337     1.3569 C.3     
  10 C10           -2.1414    -5.9275     1.3839 C.3     
  11 C11           -2.9281    -6.2533     2.6551 C.3     
  12 C12           -3.2528    -7.7247     2.6817 C.2     
  13 N13           -2.5219    -8.6590     3.2016 N.2     
  14 N14           -2.9697    -9.8367     3.1220 N.2     
  15 C15           -4.1138   -10.0082     2.5312 C.2     
  16 S16           -4.7002    -8.4829     2.0170 S.3     
  17 N17           -4.7584   -11.2272     2.3511 N.am    
  18 C18           -4.1940   -12.3622     2.8092 C.2     
  19 C19           -4.8926   -13.6831     2.6140 C.3     
  20 O20           -3.1239   -12.3204     3.3784 O.2     
  21 C21           -4.0581   -14.7860     3.2127 C.2     
  22 C22           -1.0750     2.2249     0.0167 C.2     
  23 C23           -0.8602     3.7129     0.1199 C.3     
  24 O24           -2.2000     1.7785    -0.0599 O.2     
  25 C25           -2.1936     4.4150     0.1067 C.ar    
  26 C26           -2.8566     4.6617     1.2943 C.ar    
  27 C27           -2.7511     4.8174    -1.0926 C.ar    
  28 C28           -3.9742     5.4614    -1.1047 C.ar    
  29 C29           -4.6400     5.7027     0.0824 C.ar    
  30 C30           -4.0797     5.3057     1.2822 C.ar    
  31 C31           -4.1730   -15.3055     4.4214 C.2     
  32 N32           -3.3204   -16.3116     4.7948 N.pl3   
  33 C33           -2.3982   -16.6795     3.8397 C.2     
  34 S34           -2.7237   -15.6597     2.4371 S.3     
  35 C35           -3.3442   -16.9969     6.1098 C.3     
  36 C36           -2.7712   -18.4046     5.9089 C.3     
  37 C37           -1.3883   -18.3139     5.2607 C.3     
  38 N38           -1.4862   -17.5989     3.9812 N.2     
  39 H39            0.8842     1.7494    -0.0006 H       
  40 H40            1.8750    -0.4772    -0.1940 H       
  41 H41            1.4202    -2.9344    -0.1642 H       
  42 H42           -1.6243    -4.3636    -0.7880 H       
  43 H43           -0.1000    -4.6844     0.0732 H       
  44 H44           -1.2124    -4.1780     2.2307 H       
  45 H45           -2.7367    -3.8572     1.3695 H       
  46 H46           -2.7407    -6.1832     0.5101 H       
  47 H47           -1.2164    -6.5040     1.3714 H       
  48 H48           -2.3288    -5.9976     3.5289 H       
  49 H49           -3.8531    -5.6768     2.6676 H       
  50 H50           -5.6143   -11.2606     1.8959 H       
  51 H51           -5.8652   -13.6559     3.1053 H       
  52 H52           -5.0288   -13.8682     1.5485 H       
  53 H53           -0.3386     3.9412     1.0493 H       
  54 H54           -0.2621     4.0532    -0.7255 H       
  55 H55           -2.4192     4.3510     2.2316 H       
  56 H56           -2.2308     4.6289    -2.0201 H       
  57 H57           -4.4093     5.7764    -2.0416 H       
  58 H58           -5.5954     6.2062     0.0730 H       
  59 H59           -4.5999     5.4942     2.2097 H       
  60 H60           -4.9266   -14.9431     5.1049 H       
  61 H61           -2.7320   -16.4469     6.8246 H       
  62 H62           -4.3694   -17.0633     6.4738 H       
  63 H63           -2.6867   -18.9027     6.8748 H       
  64 H64           -3.4369   -18.9781     5.2638 H       
  65 H65           -0.7110   -17.7773     5.9251 H       
  66 H66           -1.0032   -19.3186     5.0861 H       
@<TRIPOS>BOND
   1    1    2 1
   2    1   22 am
   3    1   39 1
   4    2    3 ar
   5    2    4 ar
   6    3    7 ar
   7    3   40 1
   8    4    5 ar
   9    5    6 ar
  10    6    7 ar
  11    6    8 1
  12    7   41 1
  13    8    9 1
  14    8   42 1
  15    8   43 1
  16    9   10 1
  17    9   44 1
  18    9   45 1
  19   10   11 1
  20   10   46 1
  21   10   47 1
  22   11   12 1
  23   11   48 1
  24   11   49 1
  25   12   13 2
  26   12   16 1
  27   13   14 1
  28   14   15 2
  29   15   16 1
  30   15   17 1
  31   17   18 am
  32   17   50 1
  33   18   19 1
  34   18   20 2
  35   19   21 1
  36   19   51 1
  37   19   52 1
  38   21   31 2
  39   21   34 1
  40   22   23 1
  41   22   24 2
  42   23   25 1
  43   23   53 1
  44   23   54 1
  45   25   26 ar
  46   25   27 ar
  47   26   30 ar
  48   26   55 1
  49   27   28 ar
  50   27   56 1
  51   28   29 ar
  52   28   57 1
  53   29   30 ar
  54   29   58 1
  55   30   59 1
  56   31   32 1
  57   31   60 1
  58   32   33 1
  59   32   35 1
  60   33   34 1
  61   33   38 2
  62   35   36 1
  63   35   61 1
  64   35   62 1
  65   36   37 1
  66   36   63 1
  67   36   64 1
  68   37   38 1
  69   37   65 1
  70   37   66 1

#	End of record

