#	Name: ASD08150563
#	Creating user name:	WinNT
#	Creation time:	15. 06. 2019 21:16

#	Modifying user name:	WinNT
#	Modification time:	15. 06. 2019 21:16

#	Program:	/corina/corina34_cracker 3.40 0067  02.08.2006

@<TRIPOS>MOLECULE
ASD08150563
  68   74    0    0    0
SMALL
NO_CHARGES


@<TRIPOS>ATOM
   1 N1             0.9499     2.9774     0.8741 N.am    
   2 C2             1.6546     2.8002     2.0085 C.2     
   3 C3             2.8661     2.0794     2.0028 C.2     
   4 C4             3.3412     1.5512     0.8462 C.2     
   5 C5             2.6024     1.7356    -0.3493 C.ar    
   6 C6             3.0506     1.2085    -1.5755 C.ar    
   7 N7             2.3675     1.3805    -2.6769 N.ar    
   8 C8             1.2115     2.0610    -2.7054 C.ar    
   9 C9             0.6848     2.6260    -1.5179 C.ar    
  10 C10            1.4002     2.4583    -0.3092 C.ar    
  11 C11           -1.1882     3.4751    -2.7641 C.ar    
  12 C12           -0.6606     2.9137    -3.9351 C.ar    
  13 C13            0.5102     2.2221    -3.9116 C.ar    
  14 O14            1.2392     3.2699     3.0541 O.2     
  15 C15           -0.2532     3.6920     0.9071 C.ar    
  16 C16           -1.4134     3.0806     1.3637 C.ar    
  17 C17           -2.5989     3.7887     1.3954 C.ar    
  18 C18           -2.6314     5.1048     0.9727 C.ar    
  19 C19           -1.4777     5.7165     0.5169 C.ar    
  20 C20           -0.2880     5.0160     0.4885 C.ar    
  21 C21           -0.5205     3.3339    -1.5586 C.ar    
  22 C22           -2.4671     4.2255    -2.8162 C.ar    
  23 C23           -3.3325     4.2257    -1.7173 C.ar    
  24 C24           -3.9267     5.8742     1.0083 C.3     
  25 N25           -4.4694     4.8828    -1.7415 N.ar    
  26 C26           -4.8537     5.5776    -2.8059 C.ar    
  27 C27           -4.0360     5.6262    -3.9534 C.ar    
  28 C28           -2.8168     4.9420    -3.9571 C.ar    
  29 N29           -4.2409     6.2401     2.3958 N.3     
  30 C30           -5.3628     7.1879     2.4493 C.3     
  31 C31           -5.7097     7.4816     3.9108 C.3     
  32 N32           -4.5281     8.0297     4.5914 N.3     
  33 C33           -3.4063     7.0820     4.5378 C.3     
  34 C34           -3.0594     6.7882     3.0764 C.3     
  35 C35           -4.8424     8.3957     5.9789 C.3     
  36 N36           -5.9612     6.3320    -3.0850 N.pl3   
  37 N37           -5.8524     6.8493    -4.3793 N.2     
  38 C38           -4.7365     6.4593    -4.9253 C.2     
  39 C39           -3.8585     3.1260     1.8908 C.3     
  40 F40           -3.5770     1.8060     2.2591 F       
  41 F41           -4.3483     3.8251     2.9992 F       
  42 F42           -4.8193     3.1317     0.8740 F       
  43 H43            3.4182     1.9474     2.9215 H       
  44 H44            4.2691     0.9985     0.8370 H       
  45 H45            3.9758     0.6523    -1.6070 H       
  46 H46           -1.1912     3.0316    -4.8683 H       
  47 H47            0.9020     1.7958    -4.8233 H       
  48 H48           -1.3888     2.0524     1.6933 H       
  49 H49           -1.5065     6.7444     0.1868 H       
  50 H50            0.6125     5.4943     0.1325 H       
  51 H51           -0.9279     3.7669    -0.6570 H       
  52 H52           -3.0601     3.6734    -0.8300 H       
  53 H53           -3.8289     6.7782     0.4073 H       
  54 H54           -4.7282     5.2550     0.6054 H       
  55 H55           -2.1702     4.9616    -4.8219 H       
  56 H56           -5.0804     8.1143     1.9493 H       
  57 H57           -6.2293     6.7543     1.9500 H       
  58 H58           -6.5225     8.2066     3.9530 H       
  59 H59           -6.0183     6.5597     4.4037 H       
  60 H60           -2.5398     7.5155     5.0372 H       
  61 H61           -3.6887     6.1555     5.0379 H       
  62 H62           -2.2465     6.0632     3.0342 H       
  63 H63           -2.7508     7.7101     2.5835 H       
  64 H64           -5.1790     7.5117     6.5205 H       
  65 H65           -3.9507     8.7984     6.4593 H       
  66 H66           -5.6306     9.1485     5.9865 H       
  67 H67           -6.7044     6.4833    -2.4804 H       
  68 H68           -4.3916     6.7075    -5.9182 H       
@<TRIPOS>BOND
   1    1    2 am
   2    1   10 1
   3    1   15 1
   4    2    3 1
   5    2   14 2
   6    3    4 2
   7    3   43 1
   8    4    5 1
   9    4   44 1
  10    5    6 ar
  11    5   10 ar
  12    6    7 ar
  13    6   45 1
  14    7    8 ar
  15    8    9 ar
  16    8   13 ar
  17    9   10 ar
  18    9   21 ar
  19   11   12 ar
  20   11   22 1
  21   11   21 ar
  22   12   13 ar
  23   12   46 1
  24   13   47 1
  25   15   16 ar
  26   15   20 ar
  27   16   17 ar
  28   16   48 1
  29   17   18 ar
  30   17   39 1
  31   18   19 ar
  32   18   24 1
  33   19   20 ar
  34   19   49 1
  35   20   50 1
  36   21   51 1
  37   22   23 ar
  38   22   28 ar
  39   23   25 ar
  40   23   52 1
  41   24   29 1
  42   24   53 1
  43   24   54 1
  44   25   26 ar
  45   26   27 ar
  46   26   36 1
  47   27   28 ar
  48   27   38 1
  49   28   55 1
  50   29   30 1
  51   29   34 1
  52   30   31 1
  53   30   56 1
  54   30   57 1
  55   31   32 1
  56   31   58 1
  57   31   59 1
  58   32   33 1
  59   32   35 1
  60   33   34 1
  61   33   60 1
  62   33   61 1
  63   34   62 1
  64   34   63 1
  65   35   64 1
  66   35   65 1
  67   35   66 1
  68   36   37 1
  69   36   67 1
  70   37   38 2
  71   38   68 1
  72   39   40 1
  73   39   41 1
  74   39   42 1

#	End of record

