#	Name: ASD01180051
#	Creating user name:	WinNT
#	Creation time:	15. 06. 2019 19:06

#	Modifying user name:	WinNT
#	Modification time:	15. 06. 2019 19:06

#	Program:	/corina/corina34_cracker 3.40 0067  02.08.2006

@<TRIPOS>MOLECULE
ASD01180051
  77   80    0    0    0
SMALL
NO_CHARGES


@<TRIPOS>ATOM
   1 C1             1.2543     2.5154    -1.6006 C.ar    
   2 C2             1.0566     1.2221    -1.1516 C.ar    
   3 C3             2.1366     0.3813    -0.9514 C.ar    
   4 C4             3.4183     0.8291    -1.1993 C.ar    
   5 C5             3.6233     2.1309    -1.6522 C.ar    
   6 C6             2.5316     2.9738    -1.8518 C.ar    
   7 C7             4.3785     1.1969    -4.7251 C.3     
   8 C8             5.2818     0.7479    -3.5746 C.3     
   9 C9             5.8054     1.9583    -2.8453 C.ar    
  10 C10            4.9988     2.6181    -1.9201 C.ar    
  11 C11            7.0854     2.4107    -3.0887 C.ar    
  12 C12            7.5686     3.5252    -2.4170 C.ar    
  13 C13            6.7654     4.1879    -1.4984 C.ar    
  14 C14            5.4868     3.7371    -1.2470 C.ar    
  15 C15           -0.3405     0.7273    -0.8791 C.3     
  16 C16           -0.9174     0.1023    -2.1509 C.3     
  17 C17           -2.2644    -0.5015    -1.8475 C.2     
  18 N18           -2.3434    -1.7108    -1.2576 N.am    
  19 C19           -3.6528    -2.2978    -0.9627 C.3     
  20 C20           -3.5263    -3.8212    -0.8993 C.3     
  21 C21           -3.1490    -4.3509    -2.2588 C.ar    
  22 C22           -1.8153    -4.4850    -2.6003 C.ar    
  23 C23           -1.4641    -4.9696    -3.8440 C.ar    
  24 C24           -2.4559    -5.3244    -4.7560 C.ar    
  25 C25           -3.7978    -5.1878    -4.4066 C.ar    
  26 C26           -4.1376    -4.7066    -3.1584 C.ar    
  27 C27           -2.0844    -5.8456    -6.0949 C.ar    
  28 C28           -2.5087    -5.1835    -7.2454 C.ar    
  29 C29           -1.3055    -6.9952    -6.2061 C.ar    
  30 C30           -0.9628    -7.4756    -7.4540 C.ar    
  31 C31           -1.3914    -6.8179    -8.5926 C.ar    
  32 C32           -2.1603    -5.6726    -8.4879 C.ar    
  33 O33            8.8301     3.9684    -2.6585 O.3     
  34 C34            9.2631     5.1205    -1.9324 C.3     
  35 N35           -1.0661     1.1383    -3.1817 N.3     
  36 O36           -3.2773     0.1007    -2.1341 O.2     
  37 C37           -4.1487    -1.7794     0.3626 C.2     
  38 O38           -3.4747    -0.9966     0.9982 O.2     
  39 N39           -5.3412    -2.1855     0.8415 N.am    
  40 C40           -3.3467    -3.9361    -7.1329 C.3     
  41 F41           -3.5118    -3.3692    -8.4012 F       
  42 F42           -4.5990    -4.2620    -6.6012 F       
  43 F43           -2.7074    -3.0190    -6.2919 F       
  44 H44            0.4072     3.1663    -1.7591 H       
  45 H45            1.9766    -0.6273    -0.6000 H       
  46 H46            4.2608     0.1719    -1.0423 H       
  47 H47            2.6848     3.9835    -2.2030 H       
  48 H48            3.4965     1.6943    -4.3217 H       
  49 H49            4.9242     1.8887    -5.3667 H       
  50 H50            4.0714     0.3275    -5.3064 H       
  51 H51            4.7100     0.1272    -2.8848 H       
  52 H52            6.1183     0.1734    -3.9724 H       
  53 H53            7.7125     1.8971    -3.8024 H       
  54 H54            7.1441     5.0545    -0.9770 H       
  55 H55            4.8625     4.2529    -0.5324 H       
  56 H56           -0.3130    -0.0207    -0.0868 H       
  57 H57           -0.9677     1.5629    -0.5682 H       
  58 H58           -0.2437    -0.6750    -2.5115 H       
  59 H59           -1.5332    -2.1925    -1.0284 H       
  60 H60           -4.3586    -2.0241    -1.7470 H       
  61 H61           -2.7560    -4.0921    -0.1773 H       
  62 H62           -4.4792    -4.2526    -0.5930 H       
  63 H63           -1.0474    -4.2096    -1.8926 H       
  64 H64           -0.4225    -5.0732    -4.1098 H       
  65 H65           -4.5705    -5.4613    -5.1098 H       
  66 H66           -5.1774    -4.6006    -2.8863 H       
  67 H67           -0.9700    -7.5095    -5.3176 H       
  68 H68           -0.3587    -8.3666    -7.5414 H       
  69 H69           -1.1208    -7.1970    -9.5670 H       
  70 H70           -2.4926    -5.1630    -9.3802 H       
  71 H71           10.2854     5.3674    -2.2189 H       
  72 H72            8.6085     5.9614    -2.1613 H       
  73 H73            9.2258     4.9115    -0.8633 H       
  74 H74           -1.3847     0.7393    -4.0520 H       
  75 H75           -1.6865     1.8709    -2.8711 H       
  76 H76           -5.8803    -2.8115     0.3332 H       
  77 H77           -5.6604    -1.8518     1.6946 H       
@<TRIPOS>BOND
   1    1    2 ar
   2    1    6 ar
   3    1   44 1
   4    2    3 ar
   5    2   15 1
   6    3    4 ar
   7    3   45 1
   8    4    5 ar
   9    4   46 1
  10    5    6 ar
  11    5   10 1
  12    6   47 1
  13    7    8 1
  14    7   48 1
  15    7   49 1
  16    7   50 1
  17    8    9 1
  18    8   51 1
  19    8   52 1
  20    9   10 ar
  21    9   11 ar
  22   10   14 ar
  23   11   12 ar
  24   11   53 1
  25   12   13 ar
  26   12   33 1
  27   13   14 ar
  28   13   54 1
  29   14   55 1
  30   15   16 1
  31   15   56 1
  32   15   57 1
  33   16   17 1
  34   16   35 1
  35   16   58 1
  36   17   18 am
  37   17   36 2
  38   18   19 1
  39   18   59 1
  40   19   20 1
  41   19   37 1
  42   19   60 1
  43   20   21 1
  44   20   61 1
  45   20   62 1
  46   21   22 ar
  47   21   26 ar
  48   22   23 ar
  49   22   63 1
  50   23   24 ar
  51   23   64 1
  52   24   25 ar
  53   24   27 1
  54   25   26 ar
  55   25   65 1
  56   26   66 1
  57   27   28 ar
  58   27   29 ar
  59   28   40 1
  60   28   32 ar
  61   29   30 ar
  62   29   67 1
  63   30   31 ar
  64   30   68 1
  65   31   32 ar
  66   31   69 1
  67   32   70 1
  68   33   34 1
  69   34   71 1
  70   34   72 1
  71   34   73 1
  72   35   74 1
  73   35   75 1
  74   37   38 2
  75   37   39 am
  76   39   76 1
  77   39   77 1
  78   40   41 1
  79   40   42 1
  80   40   43 1

#	End of record

