#	Name: ASD01940221
#	Creating user name:	WinNT
#	Creation time:	15. 06. 2019 20:12

#	Modifying user name:	WinNT
#	Modification time:	15. 06. 2019 20:12

#	Program:	/corina/corina34_cracker 3.40 0067  02.08.2006

@<TRIPOS>MOLECULE
ASD01940221
  41   43    0    0    0
SMALL
NO_CHARGES


@<TRIPOS>ATOM
   1 C1            -0.5448    -3.0375     1.7595 C.3     
   2 C2             6.0874     0.2543     7.7844 C.ar    
   3 F3             1.7706     2.4936     3.0005 F       
   4 C4             0.8512     1.5552     3.3157 C.ar    
   5 C5             1.2409     0.2354     3.5018 C.ar    
   6 C6             0.2887    -0.7291     3.8274 C.ar    
   7 C7            -1.0430    -0.3666     3.9640 C.ar    
   8 C8            -1.4252     0.9491     3.7776 C.ar    
   9 C9            -0.4806     1.9099     3.4594 C.ar    
  10 N10            2.5878    -0.1259     3.3620 N.pl3   
  11 N11            0.6761    -2.0625     4.0158 N.am    
  12 C12            3.4531    -0.0319     4.4546 C.ar    
  13 C13            2.9641     0.3568     5.6956 C.ar    
  14 C14            3.8164     0.4499     6.7760 C.ar    
  15 C15            5.1697     0.1540     6.6232 C.ar    
  16 C16            5.6603    -0.2361     5.3774 C.ar    
  17 C17            4.8039    -0.3334     4.2999 C.ar    
  18 F18            5.2777    -0.7111     3.0925 F       
  19 F19           -0.8587     3.1950     3.2838 F       
  20 S20           -0.3281    -3.2913     3.5425 S.o2    
  21 O21           -1.5433    -3.0368     4.2337 O.2     
  22 O22            0.4223    -4.4723     3.7905 O.2     
  23 C23            7.4462    -0.0399     7.6431 C.ar    
  24 C24            8.2609     0.0689     8.7573 C.ar    
  25 C25            7.7092     0.4616     9.9629 C.ar    
  26 N26            6.4223     0.7329    10.0657 N.ar    
  27 C27            5.6095     0.6491     9.0327 C.ar    
  28 H28            0.4249    -3.0908     1.2644 H       
  29 H29           -1.2000    -3.8112     1.3593 H       
  30 H30           -0.9893    -2.0580     1.5833 H       
  31 H31           -1.7821    -1.1127     4.2159 H       
  32 H32           -2.4628     1.2288     3.8846 H       
  33 H33            2.9192    -0.4413     2.5067 H       
  34 H34            1.5325    -2.2657     4.4235 H       
  35 H35            1.9155     0.5865     5.8144 H       
  36 H36            3.4353     0.7525     7.7401 H       
  37 H37            6.7088    -0.4655     5.2570 H       
  38 H38            7.8505    -0.3448     6.6892 H       
  39 H39            9.3158    -0.1509     8.6856 H       
  40 H40            8.3417     0.5472    10.8340 H       
  41 H41            4.5615     0.8793     9.1562 H       
@<TRIPOS>BOND
   1    1   20 1
   2    1   28 1
   3    1   29 1
   4    1   30 1
   5    2   23 ar
   6    2   15 1
   7    2   27 ar
   8    3    4 1
   9    4    5 ar
  10    4    9 ar
  11    5    6 ar
  12    5   10 1
  13    6    7 ar
  14    6   11 1
  15    7    8 ar
  16    7   31 1
  17    8    9 ar
  18    8   32 1
  19    9   19 1
  20   10   12 1
  21   10   33 1
  22   11   20 am
  23   11   34 1
  24   12   13 ar
  25   12   17 ar
  26   13   14 ar
  27   13   35 1
  28   14   15 ar
  29   14   36 1
  30   15   16 ar
  31   16   17 ar
  32   16   37 1
  33   17   18 1
  34   20   21 2
  35   20   22 2
  36   23   24 ar
  37   23   38 1
  38   24   25 ar
  39   24   39 1
  40   25   26 ar
  41   25   40 1
  42   26   27 ar
  43   27   41 1

#	End of record

