#	Name: ASD01890200
#	Creating user name:	WinNT
#	Creation time:	15. 06. 2019 19:50

#	Modifying user name:	WinNT
#	Modification time:	15. 06. 2019 19:50

#	Program:	/corina/corina34_cracker 3.40 0067  02.08.2006

@<TRIPOS>MOLECULE
ASD01890200
  49   51    0    0    0
SMALL
NO_CHARGES


@<TRIPOS>ATOM
   1 C1            -0.6685    -2.2275    -0.2616 C.2     
   2 C2             0.3575    -1.8585     0.7787 C.3     
   3 C3             0.8662    -0.4402     0.5128 C.3     
   4 C4             1.8726    -0.0478     1.5963 C.3     
   5 C5             2.1078     1.4399     1.5483 C.2     
   6 O6            -1.0495    -1.3994    -1.0547 O.2     
   7 O7            -1.1549    -3.4776    -0.3107 O.3     
   8 O8             1.4420     2.1357     0.8109 O.2     
   9 N9             3.0580     1.9973     2.3248 N.am    
  10 C10            1.5360    -0.3916    -0.8363 C.ar    
  11 C11            1.0537     0.4549    -1.8171 C.ar    
  12 C12            1.6676     0.5000    -3.0546 C.ar    
  13 C13            2.7650    -0.3023    -3.3117 C.ar    
  14 C14            3.2473    -1.1492    -2.3297 C.ar    
  15 C15            2.6360    -1.1893    -1.0907 C.ar    
  16 Cl16           3.5363    -0.2467    -4.8659 Cl      
  17 C17            3.2452     3.3857     2.3150 C.ar    
  18 C18            2.9496     4.1183     1.1730 C.ar    
  19 C19            3.1343     5.4866     1.1639 C.ar    
  20 C20            3.6152     6.1296     2.2955 C.ar    
  21 C21            3.9111     5.3980     3.4367 C.ar    
  22 C22            3.7209     4.0304     3.4490 C.ar    
  23 O23            3.7968     7.4769     2.2859 O.3     
  24 C24            5.0633     7.9488     2.1458 C.ar    
  25 C25            6.1092     7.0704     1.9004 C.ar    
  26 C26            7.3957     7.5529     1.7579 C.ar    
  27 C27            7.6418     8.9097     1.8602 C.ar    
  28 C28            6.6015     9.7871     2.1047 C.ar    
  29 C29            5.3123     9.3105     2.2423 C.ar    
  30 H30           -0.0969    -1.9018     1.7686 H       
  31 H31            1.1915    -2.5586     0.7308 H       
  32 H32            0.0271     0.2554     0.5271 H       
  33 H33            1.4783    -0.3220     2.5748 H       
  34 H34            2.8137    -0.5702     1.4244 H       
  35 H35           -1.8110    -3.6668    -0.9953 H       
  36 H36            3.6122     1.4372     2.8905 H       
  37 H37            0.1967     1.0808    -1.6164 H       
  38 H38            1.2904     1.1610    -3.8208 H       
  39 H39            4.1040    -1.7757    -2.5298 H       
  40 H40            3.0151    -1.8471    -0.3227 H       
  41 H41            2.5757     3.6179     0.2920 H       
  42 H42            2.9049     6.0564     0.2756 H       
  43 H43            4.2860     5.8989     4.3170 H       
  44 H44            3.9463     3.4618     4.3391 H       
  45 H45            5.9175     6.0105     1.8211 H       
  46 H46            8.2100     6.8697     1.5669 H       
  47 H47            8.6485     9.2847     1.7492 H       
  48 H48            6.7965    10.8463     2.1845 H       
  49 H49            4.4994     9.9966     2.4289 H       
@<TRIPOS>BOND
   1    1    2 1
   2    1    6 2
   3    1    7 1
   4    2    3 1
   5    2   30 1
   6    2   31 1
   7    3    4 1
   8    3   10 1
   9    3   32 1
  10    4    5 1
  11    4   33 1
  12    4   34 1
  13    5    8 2
  14    5    9 am
  15    7   35 1
  16    9   17 1
  17    9   36 1
  18   10   11 ar
  19   10   15 ar
  20   11   12 ar
  21   11   37 1
  22   12   13 ar
  23   12   38 1
  24   13   14 ar
  25   13   16 1
  26   14   15 ar
  27   14   39 1
  28   15   40 1
  29   17   18 ar
  30   17   22 ar
  31   18   19 ar
  32   18   41 1
  33   19   20 ar
  34   19   42 1
  35   20   21 ar
  36   20   23 1
  37   21   22 ar
  38   21   43 1
  39   22   44 1
  40   23   24 1
  41   24   25 ar
  42   24   29 ar
  43   25   26 ar
  44   25   45 1
  45   26   27 ar
  46   26   46 1
  47   27   28 ar
  48   27   47 1
  49   28   29 ar
  50   28   48 1
  51   29   49 1

#	End of record

