#	Name: ASD02500790
#	Creating user name:	WinNT
#	Creation time:	15. 06. 2019 20:23

#	Modifying user name:	WinNT
#	Modification time:	15. 06. 2019 20:23

#	Program:	/corina/corina34_cracker 3.40 0067  02.08.2006

@<TRIPOS>MOLECULE
ASD02500790
  24   24    0    0    0
SMALL
NO_CHARGES


@<TRIPOS>ATOM
   1 C1             0.0674     1.3085     0.0064 C.2     
   2 C2             0.0934    -0.1721    -0.0187 C.2     
   3 C3             1.3246    -0.8547    -0.0152 C.2     
   4 O4             1.1083     1.9338     0.0301 O.2     
   5 O5            -1.1107     1.9618    -0.0026 O.3     
   6 C6             1.3504    -2.2472     0.0773 C.2     
   7 C7             2.4833    -3.0396    -0.0173 C.2     
   8 C8             2.2158    -4.3744     0.1097 C.2     
   9 C9             0.9195    -4.6837     0.3015 C.2     
  10 S10           -0.0485    -3.2796     0.3400 S.3     
  11 Br11           0.2594    -6.4435     0.5094 Br      
  12 N12           -1.0376    -0.8515    -0.0445 N.2     
  13 N13           -2.0195    -0.3118     0.0448 N.1     
  14 N14           -3.0015     0.2278     0.1340 N.pl3   
  15 C15           -1.0601     3.4127     0.0234 C.3     
  16 C16           -2.4838     3.9729     0.0085 C.3     
  17 H17            2.2493    -0.3009    -0.0839 H       
  18 H18            3.4755    -2.6435    -0.1756 H       
  19 H19            2.9889    -5.1269     0.0595 H       
  20 H20           -0.5494     3.7423     0.9281 H       
  21 H21           -0.5187     3.7731    -0.8513 H       
  22 H22           -2.4458     5.0621     0.0280 H       
  23 H23           -2.9945     3.6433    -0.8963 H       
  24 H24           -3.0252     3.6125     0.8832 H       
@<TRIPOS>BOND
   1    1    2 1
   2    1    4 2
   3    1    5 1
   4    2    3 2
   5    2   12 1
   6    3    6 1
   7    3   17 1
   8    5   15 1
   9    6    7 2
  10    6   10 1
  11    7    8 1
  12    7   18 1
  13    8    9 2
  14    8   19 1
  15    9   10 1
  16    9   11 1
  17   12   13 2
  18   13   14 2
  19   15   16 1
  20   15   20 1
  21   15   21 1
  22   16   22 1
  23   16   23 1
  24   16   24 1

#	End of record

