#	Name: ASD04882414
#	Creating user name:	WinNT
#	Creation time:	15. 06. 2019 20:54

#	Modifying user name:	WinNT
#	Modification time:	15. 06. 2019 20:54

#	Program:	/corina/corina34_cracker 3.40 0067  02.08.2006

@<TRIPOS>MOLECULE
ASD04882414
  80   85    0    0    0
SMALL
NO_CHARGES


@<TRIPOS>ATOM
   1 C1             0.1903     1.1841     0.3843 C.ar    
   2 C2            -0.0371    -0.1539     0.0507 C.ar    
   3 C3            -1.3354    -0.6149    -0.1358 C.ar    
   4 C4            -2.4018     0.2445     0.0080 C.ar    
   5 C5            -2.1815     1.5840     0.3415 C.ar    
   6 C6            -0.8773     2.0487     0.5346 C.ar    
   7 N7             1.0383    -1.0265    -0.0957 N.3     
   8 C8             0.9437    -2.1430     0.8552 C.3     
   9 C9             1.1312    -1.5208    -1.4764 C.3     
  10 C10            2.3684    -2.4111    -1.6145 C.3     
  11 N11            2.2739    -3.5276    -0.6637 N.3     
  12 C12            2.1809    -3.0333     0.7171 C.3     
  13 C13           -3.3237     2.5045     0.4945 C.2     
  14 O14           -3.1311     3.6696     0.7847 O.2     
  15 N15           -4.5810     2.0544     0.3126 N.am    
  16 C16           -5.6683     2.9002     0.5537 C.ar    
  17 C17           -5.5783     4.2528     0.2514 C.ar    
  18 N18            1.4994     1.6472     0.5719 N.am    
  19 C19            1.7204     2.7783     1.2707 C.2     
  20 O20            0.7951     3.3427     1.8228 O.2     
  21 C21            3.0834     3.3313     1.3660 C.2     
  22 N22            4.2080     2.8110     0.8039 N.2     
  23 C23            5.2128     3.5764     1.1088 C.2     
  24 O24            4.7787     4.5959     1.8631 O.3     
  25 C25            3.4530     4.4616     2.0280 C.2     
  26 C26            6.6408     3.3528     0.6823 C.3     
  27 C27            7.3071     4.4457    -0.1558 C.3     
  28 C28            7.7129     4.2485     1.3062 C.3     
  29 C29            3.3525    -4.4028    -0.8104 C.ar    
  30 C30            4.6510    -3.9448    -0.6252 C.ar    
  31 C31            3.1290    -5.7343    -1.1364 C.ar    
  32 C32            4.1980    -6.5971    -1.2808 C.ar    
  33 C33            5.4892    -6.1367    -1.1009 C.ar    
  34 C34            5.7150    -4.8126    -0.7711 C.ar    
  35 C35            1.7219    -6.2373    -1.3317 C.3     
  36 C36           -6.6539     5.0854     0.4908 C.ar    
  37 C37           -7.8195     4.5737     1.0309 C.ar    
  38 C38           -7.9124     3.2275     1.3331 C.ar    
  39 C39           -6.8425     2.3884     1.0908 C.ar    
  40 C40           -8.9910     5.4853     1.2913 C.3     
  41 C41          -10.1449     4.6756     1.8860 C.3     
  42 C42           -8.5917     6.5391     2.2383 C.1     
  43 C43           -9.4413     6.1252    -0.0235 C.3     
  44 N44           -8.2836     7.3523     2.9692 N.1     
  45 H45           -1.5079    -1.6492    -0.3942 H       
  46 H46           -3.4092    -0.1166    -0.1375 H       
  47 H47           -0.7040     3.0830     0.7928 H       
  48 H48            0.8887    -1.7518     1.8711 H       
  49 H49            0.0491    -2.7279     0.6414 H       
  50 H50            0.2387    -2.0986    -1.7167 H       
  51 H51            1.2129    -0.6761    -2.1604 H       
  52 H52            2.4234    -2.8023    -2.6304 H       
  53 H53            3.2630    -1.8262    -1.4008 H       
  54 H54            3.0734    -2.4555     0.9573 H       
  55 H55            2.0992    -3.8780     1.4011 H       
  56 H56           -4.7318     1.1437     0.0144 H       
  57 H57           -4.6681     4.6531    -0.1701 H       
  58 H58            2.2466     1.1538     0.1988 H       
  59 H59            2.8045     5.1211     2.5856 H       
  60 H60            6.9109     2.3189     0.4676 H       
  61 H61            8.0159     4.1308    -0.9217 H       
  62 H62            6.7126     5.3264    -0.3987 H       
  63 H63            7.3854     4.9995     2.0251 H       
  64 H64            8.6886     3.8039     1.5021 H       
  65 H65            4.8279    -2.9109    -0.3676 H       
  66 H66            4.0249    -7.6326    -1.5343 H       
  67 H67            6.3232    -6.8136    -1.2137 H       
  68 H68            6.7248    -4.4562    -0.6312 H       
  69 H69            1.4372    -6.1232    -2.3777 H       
  70 H70            1.6705    -7.2900    -1.0539 H       
  71 H71            1.0403    -5.6624    -0.7049 H       
  72 H72           -6.5844     6.1374     0.2563 H       
  73 H73           -8.8242     2.8310     1.7548 H       
  74 H74           -6.9158     1.3371     1.3266 H       
  75 H75           -9.8241     4.2198     2.8227 H       
  76 H76          -10.9922     5.3349     2.0743 H       
  77 H77          -10.4406     3.8953     1.1847 H       
  78 H78           -9.7370     5.3449    -0.7248 H       
  79 H79          -10.2886     6.7845     0.1648 H       
  80 H80           -8.6192     6.7020    -0.4472 H       
@<TRIPOS>BOND
   1    1    2 ar
   2    1   18 1
   3    1    6 ar
   4    2    3 ar
   5    2    7 1
   6    3    4 ar
   7    3   45 1
   8    4    5 ar
   9    4   46 1
  10    5    6 ar
  11    5   13 1
  12    6   47 1
  13    7    8 1
  14    7    9 1
  15    8   12 1
  16    8   48 1
  17    8   49 1
  18    9   10 1
  19    9   50 1
  20    9   51 1
  21   10   11 1
  22   10   52 1
  23   10   53 1
  24   11   12 1
  25   11   29 1
  26   12   54 1
  27   12   55 1
  28   13   14 2
  29   13   15 am
  30   15   16 1
  31   15   56 1
  32   16   17 ar
  33   16   39 ar
  34   17   36 ar
  35   17   57 1
  36   18   19 am
  37   18   58 1
  38   19   20 2
  39   19   21 1
  40   21   22 1
  41   21   25 2
  42   22   23 2
  43   23   24 1
  44   23   26 1
  45   24   25 1
  46   25   59 1
  47   26   27 1
  48   26   28 1
  49   26   60 1
  50   27   28 1
  51   27   61 1
  52   27   62 1
  53   28   63 1
  54   28   64 1
  55   29   30 ar
  56   29   31 ar
  57   30   34 ar
  58   30   65 1
  59   31   32 ar
  60   31   35 1
  61   32   33 ar
  62   32   66 1
  63   33   34 ar
  64   33   67 1
  65   34   68 1
  66   35   69 1
  67   35   70 1
  68   35   71 1
  69   36   37 ar
  70   36   72 1
  71   37   38 ar
  72   37   40 1
  73   38   39 ar
  74   38   73 1
  75   39   74 1
  76   40   41 1
  77   40   42 1
  78   40   43 1
  79   41   75 1
  80   41   76 1
  81   41   77 1
  82   42   44 3
  83   43   78 1
  84   43   79 1
  85   43   80 1

#	End of record

