#	Name: ASD01812552
#	Creating user name:	WinNT
#	Creation time:	15. 06. 2019 19:28

#	Modifying user name:	WinNT
#	Modification time:	15. 06. 2019 19:28

#	Program:	/corina/corina34_cracker 3.40 0067  02.08.2006

@<TRIPOS>MOLECULE
ASD01812552
  60   64    0    0    0
SMALL
NO_CHARGES


@<TRIPOS>ATOM
   1 O1            -0.0173     1.4248     0.0099 O.3     
   2 C2             0.0021    -0.0041     0.0020 C.3     
   3 H3             0.5121    -0.3565    -0.8945 H       
   4 C4             0.7396    -0.5125     1.2435 C.3     
   5 O5             0.7074    -1.9411     1.2633 O.3     
   6 C6            -0.6087    -2.4942     1.3259 C.3     
   7 C7            -1.4004    -2.0654     0.0877 C.3     
   8 C8            -1.4345    -0.5356     0.0160 C.3     
   9 H9            -1.9603    -0.1423     0.8861 H       
  10 N10           -2.1241    -0.1162    -1.2065 N.am    
  11 C11           -3.4675    -0.0083    -1.2192 C.2     
  12 O12           -4.1067    -0.2590    -0.2166 O.2     
  13 C13           -4.1650     0.4158    -2.4557 C.ar    
  14 C14           -5.5531     0.5314    -2.4626 C.ar    
  15 C15           -6.1821     0.9267    -3.6303 C.ar    
  16 C16           -7.6819     1.0651    -3.6825 C.3     
  17 C17           -8.2855    -0.2081    -4.2171 C.ar    
  18 C18           -8.4821    -0.3712    -5.5804 C.ar    
  19 C19           -9.0392    -1.5565    -6.0307 C.ar    
  20 C20           -9.3809    -2.5385    -5.1041 C.ar    
  21 N21           -9.1767    -2.3429    -3.8078 N.ar    
  22 C22           -8.6435    -1.2278    -3.3533 C.ar    
  23 C23           -9.9785    -3.8138    -5.5704 C.ar    
  24 C24          -10.3288    -4.8000    -4.6492 C.ar    
  25 N25          -10.8603    -5.9331    -5.0692 N.ar    
  26 C26          -11.0602    -6.1329    -6.3604 C.ar    
  27 C27          -10.7136    -5.1557    -7.2786 C.ar    
  28 N28          -10.1868    -4.0176    -6.8676 N.ar    
  29 C29           -5.4085     1.1948    -4.7549 C.ar    
  30 C30           -6.1183     1.6099    -6.0157 C.3     
  31 C31           -5.1413     2.2645    -6.9907 C.3     
  32 C32           -3.9297     1.3395    -7.1552 C.3     
  33 C33           -3.1337     1.3491    -5.8520 C.3     
  34 C34           -4.0361     1.0652    -4.6783 C.ar    
  35 N35           -3.4648     0.6879    -3.5459 N.ar    
  36 H36            0.8606     1.8301     0.0037 H       
  37 H37            1.7748    -0.1726     1.2160 H       
  38 H38            0.2534    -0.1256     2.1390 H       
  39 H39           -0.5448    -3.5819     1.3577 H       
  40 H40           -1.1125    -2.1332     2.2225 H       
  41 H41           -0.9193    -2.4604    -0.8071 H       
  42 H42           -2.4182    -2.4497     0.1550 H       
  43 H43           -1.6139     0.0839    -2.0069 H       
  44 H44           -6.1276     0.3163    -1.5738 H       
  45 H45           -8.0643     1.2553    -2.6797 H       
  46 H46           -7.9476     1.8957    -4.3363 H       
  47 H47           -8.2074     0.4087    -6.2752 H       
  48 H48           -9.2066    -1.7169    -7.0855 H       
  49 H49           -8.4877    -1.1058    -2.2916 H       
  50 H50          -10.1654    -4.6373    -3.5941 H       
  51 H51          -11.4949    -7.0612    -6.7005 H       
  52 H52          -10.8785    -5.3236    -8.3326 H       
  53 H53           -6.5604     0.7313    -6.4854 H       
  54 H54           -6.9076     2.3194    -5.7670 H       
  55 H55           -5.6270     2.4085    -7.9559 H       
  56 H56           -4.8173     3.2270    -6.5950 H       
  57 H57           -4.2689     0.3261    -7.3699 H       
  58 H58           -3.3021     1.6994    -7.9705 H       
  59 H59           -2.3560     0.5870    -5.9002 H       
  60 H60           -2.6703     2.3270    -5.7210 H       
@<TRIPOS>BOND
   1    1    2 1
   2    1   36 1
   3    2    3 1
   4    2    8 1
   5    2    4 1
   6    4    5 1
   7    4   37 1
   8    4   38 1
   9    5    6 1
  10    6    7 1
  11    6   39 1
  12    6   40 1
  13    7    8 1
  14    7   41 1
  15    7   42 1
  16    8    9 1
  17    8   10 1
  18   10   11 am
  19   10   43 1
  20   11   12 2
  21   11   13 1
  22   13   35 ar
  23   13   14 ar
  24   14   15 ar
  25   14   44 1
  26   15   16 1
  27   15   29 ar
  28   16   17 1
  29   16   45 1
  30   16   46 1
  31   17   22 ar
  32   17   18 ar
  33   18   19 ar
  34   18   47 1
  35   19   20 ar
  36   19   48 1
  37   20   21 ar
  38   20   23 1
  39   21   22 ar
  40   22   49 1
  41   23   28 ar
  42   23   24 ar
  43   24   25 ar
  44   24   50 1
  45   25   26 ar
  46   26   27 ar
  47   26   51 1
  48   27   28 ar
  49   27   52 1
  50   29   34 ar
  51   29   30 1
  52   30   31 1
  53   30   53 1
  54   30   54 1
  55   31   32 1
  56   31   55 1
  57   31   56 1
  58   32   33 1
  59   32   57 1
  60   32   58 1
  61   33   34 1
  62   33   59 1
  63   33   60 1
  64   34   35 ar

#	End of record

