#	Name: ASD02039119
#	Creating user name:	WinNT
#	Creation time:	15. 06. 2019 20:17

#	Modifying user name:	WinNT
#	Modification time:	15. 06. 2019 20:17

#	Program:	/corina/corina34_cracker 3.40 0067  02.08.2006

@<TRIPOS>MOLECULE
ASD02039119
  41   44    0    0    0
SMALL
NO_CHARGES


@<TRIPOS>ATOM
   1 N1             0.0026     1.2785    -0.2070 N.2     
   2 N2             0.0318    -0.0041    -0.3030 N.2     
   3 C3             1.2281     1.7343    -0.1151 C.2     
   4 O4             2.0535     0.6719    -0.1572 O.3     
   5 C5             1.2659    -0.4146    -0.2765 C.2     
   6 N6             1.6033     3.0608     0.0032 N.pl3   
   7 C7             0.6407     4.0702    -0.0872 C.ar    
   8 C8             1.7303    -1.8456    -0.3635 C.3     
   9 C9             1.9512    -2.2151    -1.8077 C.ar    
  10 C10            0.8207     5.2669     0.5949 C.ar    
  11 C11           -0.4954     3.8811    -0.8638 C.ar    
  12 C12           -1.4446     4.8804    -0.9509 C.ar    
  13 C13           -1.2650     6.0683    -0.2660 C.ar    
  14 C14           -2.3031     7.1564    -0.3630 C.3     
  15 C15            3.1782    -2.0201    -2.3765 C.ar    
  16 C16            0.9081    -2.7558    -2.5467 C.ar    
  17 C17            1.0877    -3.1011    -3.8691 C.ar    
  18 C18            2.3262    -2.9064    -4.4710 C.ar    
  19 C19            3.3835    -2.3629    -3.7166 C.ar    
  20 N20            2.5339    -3.2422    -5.7919 N.am    
  21 C21            3.7315    -3.0537    -6.3733 C.2     
  22 C22            4.8219    -2.5074    -5.6631 C.2     
  23 C23            4.6836    -2.1618    -4.3592 C.2     
  24 O24            3.8793    -3.3629    -7.5430 O.2     
  25 C25           -0.1324     6.2621     0.5035 C.ar    
  26 F26           -3.2527     6.9866     0.6502 F       
  27 F27           -1.6861     8.4038    -0.2196 F       
  28 F28           -2.9343     7.0889    -1.6098 F       
  29 H29            2.5345     3.2902     0.1488 H       
  30 H30            2.6640    -1.9587     0.1874 H       
  31 H31            0.9727    -2.5003     0.0672 H       
  32 H32            1.7049     5.4186     1.1963 H       
  33 H33           -0.6361     2.9537    -1.3992 H       
  34 H34           -2.3279     4.7342    -1.5548 H       
  35 H35            3.9859    -1.6026    -1.7936 H       
  36 H36           -0.0542    -2.9080    -2.0806 H       
  37 H37            0.2698    -3.5215    -4.4354 H       
  38 H38            1.8056    -3.6201    -6.3093 H       
  39 H39            5.7715    -2.3688    -6.1585 H       
  40 H40            5.5127    -1.7430    -3.8082 H       
  41 H41            0.0047     7.1908     1.0373 H       
@<TRIPOS>BOND
   1    1    2 1
   2    1    3 2
   3    2    5 2
   4    3    4 1
   5    3    6 1
   6    4    5 1
   7    5    8 1
   8    6    7 1
   9    6   29 1
  10    7   10 ar
  11    7   11 ar
  12    8    9 1
  13    8   30 1
  14    8   31 1
  15    9   15 ar
  16    9   16 ar
  17   10   25 ar
  18   10   32 1
  19   11   12 ar
  20   11   33 1
  21   12   13 ar
  22   12   34 1
  23   13   25 ar
  24   13   14 1
  25   14   26 1
  26   14   27 1
  27   14   28 1
  28   15   19 ar
  29   15   35 1
  30   16   17 ar
  31   16   36 1
  32   17   18 ar
  33   17   37 1
  34   18   19 ar
  35   18   20 1
  36   19   23 1
  37   20   21 am
  38   20   38 1
  39   21   22 1
  40   21   24 2
  41   22   23 2
  42   22   39 1
  43   23   40 1
  44   25   41 1

#	End of record

