#	Name: ASD07931686
#	Creating user name:	WinNT
#	Creation time:	15. 06. 2019 21:13

#	Modifying user name:	WinNT
#	Modification time:	15. 06. 2019 21:13

#	Program:	/corina/corina34_cracker 3.40 0067  02.08.2006

@<TRIPOS>MOLECULE
ASD07931686
  54   56    0    0    0
SMALL
NO_CHARGES


@<TRIPOS>ATOM
   1 C1            -0.0180     1.4754     0.0102 C.2     
   2 C2             0.0021    -0.0041     0.0020 C.2     
   3 N3             1.1814     2.1509     0.0023 N.am    
   4 N4             1.1194    -0.6400     0.4288 N.am    
   5 C5             2.2493     0.1650     0.9143 C.3     
   6 C6             2.4261     1.3707    -0.0208 C.3     
   7 C7            -1.2008     2.1485     0.0195 C.2     
   8 C8            -1.2247     3.5486     0.0291 C.2     
   9 C9            -0.0458     4.2425     0.0303 C.2     
  10 C10            1.2139     3.4948     0.0143 C.2     
  11 O11           -0.9642    -0.6358    -0.3794 O.2     
  12 O12            2.2807     4.0852     0.0118 O.2     
  13 C13            0.4239     6.4402     1.0348 C.2     
  14 N14            0.2552     7.6848     0.6804 N.2     
  15 C15           -0.3161     7.7283    -0.5326 C.2     
  16 C16           -0.5113     6.4636    -0.9513 C.2     
  17 N17           -0.0431     5.6402     0.0404 N.pl3   
  18 C18           -0.6774     8.9771    -1.2948 C.3     
  19 C19            1.2002    -2.1026     0.4064 C.3     
  20 C20            1.7676    -2.5615    -0.9383 C.3     
  21 C21            1.7361    -4.0894    -1.0105 C.3     
  22 C22            2.1691    -4.5266    -2.3477 C.1     
  23 C23            2.5144    -4.8752    -3.4143 C.1     
  24 Si24           3.0733    -5.4394    -5.1403 Si      
  25 C25            3.0349    -7.2999    -5.2282 C.3     
  26 C26            1.9253    -4.7332    -6.4265 C.3     
  27 C27            4.8077    -4.8384    -5.4588 C.3     
  28 O28            3.1161    -2.1063    -1.0666 O.3     
  29 H29            2.0426     0.5136     1.9261 H       
  30 H30            3.1572    -0.4381     0.9099 H       
  31 H31            2.6247     1.0242    -1.0350 H       
  32 H32            3.2543     1.9881     0.3270 H       
  33 H33           -2.1297     1.5976     0.0190 H       
  34 H34           -2.1668     4.0767     0.0353 H       
  35 H35            0.8650     6.1025     1.9610 H       
  36 H36           -0.9521     6.1566    -1.8883 H       
  37 H37            0.1651     9.2797    -1.9167 H       
  38 H38           -1.5430     8.7793    -1.9270 H       
  39 H39           -0.9156     9.7756    -0.5921 H       
  40 H40            1.8522    -2.4428     1.2110 H       
  41 H41            0.2042    -2.5236     0.5432 H       
  42 H42            1.1658    -2.1470    -1.7471 H       
  43 H43            2.4077    -4.5027    -0.2580 H       
  44 H44            0.7213    -4.4411    -0.8242 H       
  45 H45            2.0201    -7.6516    -5.0418 H       
  46 H46            3.3555    -7.6236    -6.2184 H       
  47 H47            3.7065    -7.7132    -4.4757 H       
  48 H48            1.9478    -3.6446    -6.3751 H       
  49 H49            2.2460    -5.0568    -7.4167 H       
  50 H50            0.9106    -5.0848    -6.2401 H       
  51 H51            5.4793    -5.2516    -4.7063 H       
  52 H52            5.1283    -5.1621    -6.4490 H       
  53 H53            4.8302    -3.7498    -5.4074 H       
  54 H54            3.7099    -2.4368    -0.3787 H       
@<TRIPOS>BOND
   1    1    2 1
   2    1    3 1
   3    1    7 2
   4    2    4 am
   5    2   11 2
   6    3    6 1
   7    3   10 am
   8    4    5 1
   9    4   19 1
  10    5    6 1
  11    5   29 1
  12    5   30 1
  13    6   31 1
  14    6   32 1
  15    7    8 1
  16    7   33 1
  17    8    9 2
  18    8   34 1
  19    9   10 1
  20    9   17 1
  21   10   12 2
  22   13   14 2
  23   13   17 1
  24   13   35 1
  25   14   15 1
  26   15   16 2
  27   15   18 1
  28   16   17 1
  29   16   36 1
  30   18   37 1
  31   18   38 1
  32   18   39 1
  33   19   20 1
  34   19   40 1
  35   19   41 1
  36   20   21 1
  37   20   28 1
  38   20   42 1
  39   21   22 1
  40   21   43 1
  41   21   44 1
  42   22   23 3
  43   23   24 1
  44   24   25 1
  45   24   26 1
  46   24   27 1
  47   25   45 1
  48   25   46 1
  49   25   47 1
  50   26   48 1
  51   26   49 1
  52   26   50 1
  53   27   51 1
  54   27   52 1
  55   27   53 1
  56   28   54 1

#	End of record

