#	Name: ASD03090123
#	Creating user name:	WinNT
#	Creation time:	15. 06. 2019 20:28

#	Modifying user name:	WinNT
#	Modification time:	15. 06. 2019 20:28

#	Program:	/corina/corina34_cracker 3.40 0067  02.08.2006

@<TRIPOS>MOLECULE
ASD03090123
  52   54    0    0    0
SMALL
NO_CHARGES


@<TRIPOS>ATOM
   1 C1            -0.0186     1.5024     0.0154 C.2     
   2 C2             0.0014    -0.0045     0.0123 C.3     
   3 O3             1.0237     2.1227     0.0093 O.2     
   4 N4            -1.1946     2.1607     0.0195 N.am    
   5 C5             1.4287    -0.4880     0.0013 C.ar    
   6 C6             2.0905    -0.7116     1.1947 C.ar    
   7 C7             3.3986    -1.1547     1.1881 C.ar    
   8 C8             4.0493    -1.3757    -0.0191 C.ar    
   9 C9             3.3815    -1.1500    -1.2160 C.ar    
  10 C10            2.0717    -0.7123    -1.2023 C.ar    
  11 N11            5.3724    -1.8233    -0.0293 N.pl3   
  12 C12            6.0571    -2.0558    -1.3034 C.3     
  13 C13            7.4625    -2.5312    -1.0389 C.ar    
  14 C14            7.7222    -3.8838    -0.9171 C.ar    
  15 C15            9.0096    -4.3221    -0.6747 C.ar    
  16 C16           10.0424    -3.4038    -0.5534 C.ar    
  17 C17            9.7793    -2.0472    -0.6761 C.ar    
  18 C18            8.4911    -1.6143    -0.9242 C.ar    
  19 O19           11.3097    -3.8324    -0.3145 O.3     
  20 C20           12.3228    -2.8310    -0.2014 C.3     
  21 C21           -1.2153     3.5574     0.1329 C.ar    
  22 C22           -2.1839     4.2939    -0.5363 C.ar    
  23 C23           -2.2048     5.6696    -0.4248 C.ar    
  24 C24           -1.2567     6.3175     0.3575 C.ar    
  25 C25           -0.2879     5.5802     1.0273 C.ar    
  26 C26           -0.2708     4.2041     0.9191 C.ar    
  27 S27           -1.2824     8.0736     0.4997 S.3     
  28 C28            0.1193     8.4145     1.5995 C.3     
  29 F29           -0.0833     7.7727     2.8260 F       
  30 F30            1.2978     7.9397     1.0139 F       
  31 H31           -0.5013    -0.3764     0.9052 H       
  32 H32           -0.5139    -0.3729    -0.8747 H       
  33 H33           -2.0266     1.6678    -0.0562 H       
  34 H34            1.5841    -0.5393     2.1329 H       
  35 H35            3.9150    -1.3289     2.1205 H       
  36 H36            3.8846    -1.3208    -2.1563 H       
  37 H37            1.5504    -0.5412    -2.1325 H       
  38 H38            5.8378    -1.9803     0.8071 H       
  39 H39            5.5184    -2.8135    -1.8725 H       
  40 H40            6.0889    -1.1274    -1.8736 H       
  41 H41            6.9177    -4.5982    -1.0112 H       
  42 H42            9.2118    -5.3787    -0.5792 H       
  43 H43           10.5816    -1.3304    -0.5821 H       
  44 H44            8.2865    -0.5586    -1.0245 H       
  45 H45           12.3763    -2.2618    -1.1295 H       
  46 H46           12.0803    -2.1602     0.6227 H       
  47 H47           13.2847    -3.3071    -0.0113 H       
  48 H48           -2.9208     3.7903    -1.1443 H       
  49 H49           -2.9577     6.2424    -0.9458 H       
  50 H50            0.4492     6.0833     1.6355 H       
  51 H51            0.4798     3.6306     1.4427 H       
  52 H52            0.2013     9.4893     1.7611 H       
@<TRIPOS>BOND
   1    1    2 1
   2    1    3 2
   3    1    4 am
   4    2    5 1
   5    2   31 1
   6    2   32 1
   7    4   21 1
   8    4   33 1
   9    5    6 ar
  10    5   10 ar
  11    6    7 ar
  12    6   34 1
  13    7    8 ar
  14    7   35 1
  15    8    9 ar
  16    8   11 1
  17    9   10 ar
  18    9   36 1
  19   10   37 1
  20   11   12 1
  21   11   38 1
  22   12   13 1
  23   12   39 1
  24   12   40 1
  25   13   14 ar
  26   13   18 ar
  27   14   15 ar
  28   14   41 1
  29   15   16 ar
  30   15   42 1
  31   16   17 ar
  32   16   19 1
  33   17   18 ar
  34   17   43 1
  35   18   44 1
  36   19   20 1
  37   20   45 1
  38   20   46 1
  39   20   47 1
  40   21   22 ar
  41   21   26 ar
  42   22   23 ar
  43   22   48 1
  44   23   24 ar
  45   23   49 1
  46   24   25 ar
  47   24   27 1
  48   25   26 ar
  49   25   50 1
  50   26   51 1
  51   27   28 1
  52   28   29 1
  53   28   30 1
  54   28   52 1

#	End of record

