#	Name: ASD07138001
#	Creating user name:	WinNT
#	Creation time:	15. 06. 2019 21:09

#	Modifying user name:	WinNT
#	Modification time:	15. 06. 2019 21:09

#	Program:	/corina/corina34_cracker 3.40 0067  02.08.2006

@<TRIPOS>MOLECULE
ASD07138001
  74   76    0    0    0
SMALL
NO_CHARGES


@<TRIPOS>ATOM
   1 O1            -0.5206     1.7061     0.3317 O.3     
   2 C2             0.8832     1.8627     0.1147 C.3     
   3 C3             1.2927     1.0927    -1.1435 C.3     
   4 C4             0.9085    -0.3809    -0.9785 C.3     
   5 C5            -0.5949    -0.4773    -0.7014 C.3     
   6 C6            -0.9315     0.3534     0.5397 C.3     
   7 O7             2.7053     1.1999    -1.3304 O.3     
   8 O8             1.2203    -1.0933    -2.1774 O.3     
   9 C9             1.2091     3.3466    -0.0665 C.3     
  10 C10            0.6767     4.1357     1.1314 C.3     
  11 O11            2.6251     3.5157    -0.1570 O.3     
  12 O12           -0.2464    -0.1839     1.6729 O.3     
  13 C13           -0.7108     0.3215     2.9262 C.3     
  14 C14           -1.8563    -0.5550     3.4367 C.3     
  15 C15           -2.3535    -0.0138     4.7786 C.3     
  16 C16           -1.2073    -0.0315     5.7919 C.3     
  17 C17           -0.0618     0.8449     5.2815 C.3     
  18 C18            0.4354     0.3038     3.9395 C.3     
  19 O19           -2.9269    -0.5385     2.4903 O.3     
  20 O20           -3.4234    -0.8324     5.2554 O.3     
  21 O21           -5.0900     0.8009     5.2260 O.3     
  22 C22           -4.3836    -0.1307     6.0477 C.3     
  23 C23           -5.3741    -1.1291     6.6524 C.3     
  24 C24           -6.1303    -1.8344     5.5223 C.3     
  25 C25           -6.8240    -0.7817     4.6523 C.3     
  26 C26           -5.7775     0.2033     4.1248 C.3     
  27 N27           -7.1360    -2.7397     6.0941 N.3     
  28 C28           -6.5439    -4.0427     6.4250 C.3     
  29 C29           -7.5188    -1.4686     3.4749 C.3     
  30 O30           -7.7910    -0.0778     5.4343 O.3     
  31 O31           -4.6637    -2.0965     7.4280 O.3     
  32 N32            1.5353     1.1453     3.4494 N.3     
  33 N33           -1.6847     0.4880     7.0804 N.3     
  34 N34           -0.9620    -1.8803    -0.4675 N.3     
  35 H35            1.4295     1.4727     0.9735 H       
  36 H36            0.7772     1.5088    -2.0091 H       
  37 H37            1.4615    -0.8105    -0.1432 H       
  38 H38           -1.1485    -0.0929    -1.5581 H       
  39 H39           -2.0066     0.3232     0.7168 H       
  40 H40            3.0352     0.7345    -2.1112 H       
  41 H41            2.1567    -1.0684    -2.4174 H       
  42 H42            0.7403     3.7126    -0.9799 H       
  43 H43            1.1455     3.7696     2.0449 H       
  44 H44            0.9089     5.1928     1.0023 H       
  45 H45           -0.4034     4.0067     1.2005 H       
  46 H46            3.0127     3.1601    -0.9684 H       
  47 H47           -1.0655     1.3440     2.7967 H       
  48 H48           -1.5016    -1.5775     3.5662 H       
  49 H49           -2.7083     1.0087     4.6491 H       
  50 H50           -0.8526    -1.0540     5.9214 H       
  51 H51           -0.4165     1.8674     5.1520 H       
  52 H52            0.7548     0.8323     6.0034 H       
  53 H53            0.7902    -0.7187     4.0690 H       
  54 H54           -3.6656    -1.1178     2.7220 H       
  55 H55           -3.8730     0.4048     6.8480 H       
  56 H56           -6.0824    -0.5992     7.2893 H       
  57 H57           -5.4281    -2.4048     4.9142 H       
  58 H58           -6.2710     0.9795     3.5400 H       
  59 H59           -5.0633    -0.3275     3.4954 H       
  60 H60           -7.5762    -2.3267     6.9026 H       
  61 H61           -7.3101    -4.6934     6.8465 H       
  62 H62           -6.1380    -4.4973     5.5214 H       
  63 H63           -5.7444    -3.9041     7.1528 H       
  64 H64           -8.2598    -2.1737     3.8514 H       
  65 H65           -8.0122    -0.7188     2.8564 H       
  66 H66           -6.7795    -2.0026     2.8780 H       
  67 H67           -8.2697     0.6058     4.9458 H       
  68 H68           -4.1573    -1.7187     8.1600 H       
  69 H69            2.2555     1.2429     4.1494 H       
  70 H70            1.9145     0.7796     2.5889 H       
  71 H71           -0.9455     0.4866     7.7671 H       
  72 H72           -2.0782     1.4111     6.9746 H       
  73 H73           -1.9499    -1.9696    -0.2824 H       
  74 H74           -0.6860    -2.4608    -1.2453 H       
@<TRIPOS>BOND
   1    1    6 1
   2    1    2 1
   3    2    3 1
   4    2    9 1
   5    2   35 1
   6    3    4 1
   7    3    7 1
   8    3   36 1
   9    4    5 1
  10    4    8 1
  11    4   37 1
  12    5    6 1
  13    5   34 1
  14    5   38 1
  15    6   12 1
  16    6   39 1
  17    7   40 1
  18    8   41 1
  19    9   10 1
  20    9   11 1
  21    9   42 1
  22   10   43 1
  23   10   44 1
  24   10   45 1
  25   11   46 1
  26   12   13 1
  27   13   14 1
  28   13   18 1
  29   13   47 1
  30   14   15 1
  31   14   19 1
  32   14   48 1
  33   15   16 1
  34   15   20 1
  35   15   49 1
  36   16   17 1
  37   16   33 1
  38   16   50 1
  39   17   18 1
  40   17   51 1
  41   17   52 1
  42   18   32 1
  43   18   53 1
  44   19   54 1
  45   20   22 1
  46   21   22 1
  47   21   26 1
  48   22   23 1
  49   22   55 1
  50   23   24 1
  51   23   31 1
  52   23   56 1
  53   24   25 1
  54   24   27 1
  55   24   57 1
  56   25   26 1
  57   25   29 1
  58   25   30 1
  59   26   58 1
  60   26   59 1
  61   27   28 1
  62   27   60 1
  63   28   61 1
  64   28   62 1
  65   28   63 1
  66   29   64 1
  67   29   65 1
  68   29   66 1
  69   30   67 1
  70   31   68 1
  71   32   69 1
  72   32   70 1
  73   33   71 1
  74   33   72 1
  75   34   73 1
  76   34   74 1

#	End of record

