#	Name: ASD03900014
#	Creating user name:	WinNT
#	Creation time:	15. 06. 2019 20:47

#	Modifying user name:	WinNT
#	Modification time:	15. 06. 2019 20:47

#	Program:	/corina/corina34_cracker 3.40 0067  02.08.2006

@<TRIPOS>MOLECULE
ASD03900014
  50   52    0    0    0
SMALL
NO_CHARGES


@<TRIPOS>ATOM
   1 C1            -0.0233     1.4977     0.0023 C.3     
   2 C2            -0.2602     0.0161     0.1425 C.ar    
   3 C3             1.4585     1.7662    -0.0560 C.ar    
   4 C4            -0.6737     1.9930    -1.2637 C.ar    
   5 C5            -0.6267     2.2267     1.2046 C.3     
   6 C6            -1.5519    -0.4740     0.1984 C.ar    
   7 C7            -1.7717    -1.8317     0.3273 C.ar    
   8 C8            -0.6952    -2.7037     0.4001 C.ar    
   9 C9             0.5999    -2.2095     0.3433 C.ar    
  10 C10            0.8144    -0.8514     0.2091 C.ar    
  11 C11            2.1960     1.3340    -1.1428 C.ar    
  12 C12            3.5545     1.5785    -1.1983 C.ar    
  13 C13            4.1786     2.2586    -0.1627 C.ar    
  14 C14            3.4364     2.6916     0.9264 C.ar    
  15 C15            2.0772     2.4492     0.9748 C.ar    
  16 C16           -0.7237     3.3484    -1.5305 C.ar    
  17 C17           -1.3203     3.8027    -2.6918 C.ar    
  18 C18           -1.8666     2.9015    -3.5864 C.ar    
  19 C19           -1.8158     1.5460    -3.3200 C.ar    
  20 C20           -1.2153     1.0915    -2.1608 C.ar    
  21 O21           -0.9089    -4.0400     0.5274 O.3     
  22 O22            5.5153     2.4999    -0.2149 O.3     
  23 C23            5.9268     3.4750    -1.0411 C.2     
  24 C24           -1.3069    -4.7010    -0.5714 C.2     
  25 O25            5.1160     4.1544    -1.6249 O.2     
  26 C26            7.4000     3.7219    -1.2403 C.3     
  27 O27           -1.5462    -4.0938    -1.5882 O.2     
  28 C28           -1.4553    -6.2003    -0.5364 C.3     
  29 Cl29          -1.9998    -6.7882    -2.1516 Cl      
  30 Cl30           7.6298     5.0850    -2.3978 Cl      
  31 H31           -0.1563     1.8685     2.1203 H       
  32 H32           -0.4553     3.2983     1.1032 H       
  33 H33           -1.6985     2.0325     1.2468 H       
  34 H34           -2.3896     0.2052     0.1417 H       
  35 H35           -2.7808    -2.2140     0.3717 H       
  36 H36            1.4396    -2.8863     0.4001 H       
  37 H37            1.8224    -0.4662     0.1645 H       
  38 H38            1.7096     0.8046    -1.9487 H       
  39 H39            4.1302     1.2401    -2.0471 H       
  40 H40            3.9201     3.2209     1.7340 H       
  41 H41            1.4989     2.7864     1.8223 H       
  42 H42           -0.2969     4.0525    -0.8316 H       
  43 H43           -1.3600     4.8617    -2.8999 H       
  44 H44           -2.3334     3.2564    -4.4933 H       
  45 H45           -2.2429     0.8419    -4.0188 H       
  46 H46           -1.1756     0.0325    -1.9526 H       
  47 H47            7.8584     3.9758    -0.2845 H       
  48 H48            7.8684     2.8227    -1.6404 H       
  49 H49           -0.4959    -6.6547    -0.2889 H       
  50 H50           -2.1928    -6.4749     0.2177 H       
@<TRIPOS>BOND
   1    1    2 1
   2    1    3 1
   3    1    4 1
   4    1    5 1
   5    2    6 ar
   6    2   10 ar
   7    3   11 ar
   8    3   15 ar
   9    4   16 ar
  10    4   20 ar
  11    5   31 1
  12    5   32 1
  13    5   33 1
  14    6    7 ar
  15    6   34 1
  16    7    8 ar
  17    7   35 1
  18    8    9 ar
  19    8   21 1
  20    9   10 ar
  21    9   36 1
  22   10   37 1
  23   11   12 ar
  24   11   38 1
  25   12   13 ar
  26   12   39 1
  27   13   14 ar
  28   13   22 1
  29   14   15 ar
  30   14   40 1
  31   15   41 1
  32   16   17 ar
  33   16   42 1
  34   17   18 ar
  35   17   43 1
  36   18   19 ar
  37   18   44 1
  38   19   20 ar
  39   19   45 1
  40   20   46 1
  41   21   24 1
  42   22   23 1
  43   23   25 2
  44   23   26 1
  45   24   27 2
  46   24   28 1
  47   26   30 1
  48   26   47 1
  49   26   48 1
  50   28   29 1
  51   28   49 1
  52   28   50 1

#	End of record

