#	Name: ASD03090572
#	Creating user name:	WinNT
#	Creation time:	15. 06. 2019 20:29

#	Modifying user name:	WinNT
#	Modification time:	15. 06. 2019 20:29

#	Program:	/corina/corina34_cracker 3.40 0067  02.08.2006

@<TRIPOS>MOLECULE
ASD03090572
  34   35    0    0    0
SMALL
NO_CHARGES


@<TRIPOS>ATOM
   1 N1            -0.0162     1.3436     0.0094 N.am    
   2 C2             0.0193     0.1476     0.6299 C.2     
   3 O3             1.0727    -0.2854     1.0557 O.2     
   4 N4            -1.1129    -0.5683     0.7785 N.am    
   5 S5            -2.4214    -2.8290     1.6856 S.3     
   6 C6            -1.0764    -1.8023     1.4187 C.2     
   7 N7            -0.0165    -2.3678     1.9128 N.2     
   8 N8            -0.1565    -3.4951     2.4636 N.2     
   9 C9            -1.3550    -3.9854     2.4838 C.2     
  10 C10           -1.7649    -5.3065     3.0818 C.3     
  11 F11           -0.6665    -5.8890     3.7231 F       
  12 F12           -2.7911    -5.0999     4.0099 F       
  13 F13           -2.2178    -6.1571     2.0676 F       
  14 C14            1.1454     2.1273    -0.0707 C.ar    
  15 C15            1.0455     3.5109    -0.1992 C.ar    
  16 C16            2.1934     4.2814    -0.2775 C.ar    
  17 C17            3.4398     3.6746    -0.2279 C.ar    
  18 C18            3.5374     2.2972    -0.1000 C.ar    
  19 C19            2.3934     1.5259    -0.0163 C.ar    
  20 O20            4.5670     4.4311    -0.3053 O.3     
  21 C21            5.8168     3.7407    -0.2479 C.3     
  22 O22           -0.1773     4.1037    -0.2481 O.3     
  23 C23           -0.2037     5.5263    -0.3806 C.3     
  24 H24           -0.8435     1.6608    -0.3853 H       
  25 H25           -1.9533    -0.2228     0.4388 H       
  26 H26            2.1183     5.3541    -0.3776 H       
  27 H27            4.5088     1.8268    -0.0615 H       
  28 H28            2.4717     0.4538     0.0878 H       
  29 H29            6.6328     4.4598    -0.3199 H       
  30 H30            5.8907     3.2008     0.6962 H       
  31 H31            5.8804     3.0349    -1.0760 H       
  32 H32           -1.2379     5.8696    -0.4072 H       
  33 H33            0.3080     5.9799     0.4682 H       
  34 H34            0.2987     5.8146    -1.3040 H       
@<TRIPOS>BOND
   1    1    2 am
   2    1   14 1
   3    1   24 1
   4    2    3 2
   5    2    4 am
   6    4    6 1
   7    4   25 1
   8    5    6 1
   9    5    9 1
  10    6    7 2
  11    7    8 1
  12    8    9 2
  13    9   10 1
  14   10   11 1
  15   10   12 1
  16   10   13 1
  17   14   15 ar
  18   14   19 ar
  19   15   16 ar
  20   15   22 1
  21   16   17 ar
  22   16   26 1
  23   17   18 ar
  24   17   20 1
  25   18   19 ar
  26   18   27 1
  27   19   28 1
  28   20   21 1
  29   21   29 1
  30   21   30 1
  31   21   31 1
  32   22   23 1
  33   23   32 1
  34   23   33 1
  35   23   34 1

#	End of record

