#	Name: ASD00842225
#	Creating user name:	WinNT
#	Creation time:	15. 06. 2019 18:43

#	Modifying user name:	WinNT
#	Modification time:	15. 06. 2019 18:43

#	Program:	/corina/corina34_cracker 3.40 0067  02.08.2006

@<TRIPOS>MOLECULE
ASD00842225
  89   94    0    0    0
SMALL
NO_CHARGES


@<TRIPOS>ATOM
   1 F1             6.0484    -1.6560    -2.0443 F       
   2 C2             0.9590     1.5332    -0.4391 C.ar    
   3 C3             1.2738     0.2012    -0.6642 C.ar    
   4 C4             1.2257    -0.7072     0.3835 C.ar    
   5 C5             0.8647    -0.2834     1.6475 C.ar    
   6 C6             0.5508     1.0450     1.8693 C.ar    
   7 C7             0.5984     1.9522     0.8272 C.ar    
   8 C8             1.5667    -2.1552     0.1423 C.3     
   9 C9             1.3206    -2.9731     1.3920 C.2     
  10 C10            0.7523    -2.7082    -1.0290 C.3     
  11 C11           -0.7157    -2.4902    -0.7674 C.2     
  12 N12           -1.6335    -2.9925    -1.6170 N.am    
  13 O13           -1.0713    -1.8627     0.2077 O.2     
  14 C14           -3.0638    -2.6968    -1.4443 C.3     
  15 C15           -3.6208    -2.1897    -2.7788 C.3     
  16 N16           -3.3106    -3.1613    -3.8360 N.3     
  17 C17           -1.8603    -3.2983    -4.0250 C.3     
  18 C18           -1.2306    -3.8458    -2.7452 C.3     
  19 N19           -3.9669    -2.8020    -5.0827 N.3     
  20 C20           -3.6566    -3.7739    -6.1404 C.3     
  21 C21           -4.4274    -3.4054    -7.4102 C.3     
  22 N22           -4.0603    -2.0444    -7.8255 N.3     
  23 C23           -4.3705    -1.0725    -6.7678 C.3     
  24 C24           -3.5997    -1.4409    -5.4980 C.3     
  25 H25           -3.0868    -1.9963    -8.0866 H       
  26 O26            0.2575    -3.1237     1.9561 O.2     
  27 N27            2.5001    -3.5012     1.7592 N.am    
  28 C28            3.0478    -2.3145    -0.1168 C.ar    
  29 C29            3.5352    -3.1348     0.8955 C.ar    
  30 C30            3.8817    -1.8208    -1.0957 C.ar    
  31 C31            5.2288    -2.1383    -1.0847 C.ar    
  32 C32            5.7366    -2.9618    -0.0747 C.ar    
  33 C33            4.8867    -3.4585     0.9132 C.ar    
  34 C34            2.4569    -6.1365     2.5513 C.ar    
  35 C35            1.2103    -6.5407     2.0953 C.ar    
  36 C36            3.5067    -7.0347     2.5833 C.ar    
  37 C37            3.3181    -8.3366     2.1612 C.ar    
  38 C38            2.0731    -8.7457     1.7043 C.ar    
  39 C39            1.0184    -7.8469     1.6716 C.ar    
  40 O40            1.8881   -10.0266     1.2896 O.3     
  41 O41            0.1782    -5.6571     2.0645 O.3     
  42 C42           -1.0768    -6.1421     1.5832 C.3     
  43 C43            3.0188   -10.8982     1.3513 C.3     
  44 C44            7.1290    -3.2955    -0.0553 C.1     
  45 N45            8.2336    -3.5603    -0.0400 N.1     
  46 O46            1.6283    -0.2134    -1.9089 O.3     
  47 C47            2.0775     0.1347    -4.2578 C.3     
  48 C48            1.5474     0.7500    -2.9612 C.3     
  49 S49            2.7034    -4.4749     3.0832 S.o2    
  50 O50            4.0718    -4.3704     3.4517 O.2     
  51 O51            1.6345    -4.1747     3.9701 O.2     
  52 H52            1.0000     2.2431    -1.2519 H       
  53 H53            0.8271    -0.9901     2.4633 H       
  54 H54            0.2681     1.3743     2.8582 H       
  55 H55            0.3528     2.9891     1.0029 H       
  56 H56            1.0385    -2.1929    -1.9458 H       
  57 H57            0.9478    -3.7752    -1.1357 H       
  58 H58           -3.5919    -3.6031    -1.1478 H       
  59 H59           -3.1895    -1.9299    -0.6799 H       
  60 H60           -4.7013    -2.0703    -2.7001 H       
  61 H61           -3.1651    -1.2298    -3.0218 H       
  62 H62           -1.6641    -3.9829    -4.8502 H       
  63 H63           -1.4291    -2.3230    -4.2507 H       
  64 H64           -0.1448    -3.8413    -2.8403 H       
  65 H65           -1.5814    -4.8630    -2.5706 H       
  66 H66           -2.5865    -3.7574    -6.3469 H       
  67 H67           -3.9490    -4.7720    -5.8142 H       
  68 H68           -4.1765    -4.1082    -8.2048 H       
  69 H69           -5.4982    -3.4485    -7.2110 H       
  70 H70           -4.0781    -0.0744    -7.0940 H       
  71 H71           -5.4407    -1.0890    -6.5613 H       
  72 H72           -3.8506    -0.7382    -4.7034 H       
  73 H73           -2.5289    -1.3979    -5.6972 H       
  74 H74            3.4838    -1.1854    -1.8730 H       
  75 H75            5.2792    -4.0944     1.6929 H       
  76 H76            4.4763    -6.7182     2.9386 H       
  77 H77            4.1403    -9.0364     2.1865 H       
  78 H78            0.0487    -8.1634     1.3167 H       
  79 H79           -1.8120    -5.3379     1.6110 H       
  80 H80           -0.9615    -6.4936     0.5579 H       
  81 H81           -1.4143    -6.9648     2.2135 H       
  82 H82            3.8185   -10.5006     0.7264 H       
  83 H83            3.3654   -10.9712     2.3821 H       
  84 H84            2.7349   -11.8875     0.9924 H       
  85 H85            1.4265    -0.6841    -4.5642 H       
  86 H86            2.0976     0.8947    -5.0390 H       
  87 H87            3.0861    -0.2448    -4.0941 H       
  88 H88            0.5088     1.0505    -3.0996 H       
  89 H89            2.1466     1.6227    -2.7016 H       
@<TRIPOS>BOND
   1    1   31 1
   2    2    3 ar
   3    2    7 ar
   4    2   52 1
   5    3    4 ar
   6    3   46 1
   7    4    5 ar
   8    4    8 1
   9    5    6 ar
  10    5   53 1
  11    6    7 ar
  12    6   54 1
  13    7   55 1
  14    8    9 1
  15    8   10 1
  16    8   28 1
  17    9   26 2
  18    9   27 am
  19   10   11 1
  20   10   56 1
  21   10   57 1
  22   11   12 am
  23   11   13 2
  24   12   14 1
  25   12   18 1
  26   14   15 1
  27   14   58 1
  28   14   59 1
  29   15   16 1
  30   15   60 1
  31   15   61 1
  32   16   17 1
  33   16   19 1
  34   17   18 1
  35   17   62 1
  36   17   63 1
  37   18   64 1
  38   18   65 1
  39   19   20 1
  40   19   24 1
  41   20   21 1
  42   20   66 1
  43   20   67 1
  44   21   22 1
  45   21   68 1
  46   21   69 1
  47   22   23 1
  48   22   25 1
  49   23   24 1
  50   23   70 1
  51   23   71 1
  52   24   72 1
  53   24   73 1
  54   27   49 am
  55   27   29 1
  56   28   29 ar
  57   28   30 ar
  58   29   33 ar
  59   30   31 ar
  60   30   74 1
  61   31   32 ar
  62   32   33 ar
  63   32   44 1
  64   33   75 1
  65   34   35 ar
  66   34   36 ar
  67   34   49 1
  68   35   41 1
  69   35   39 ar
  70   36   37 ar
  71   36   76 1
  72   37   38 ar
  73   37   77 1
  74   38   39 ar
  75   38   40 1
  76   39   78 1
  77   40   43 1
  78   41   42 1
  79   42   79 1
  80   42   80 1
  81   42   81 1
  82   43   82 1
  83   43   83 1
  84   43   84 1
  85   44   45 3
  86   46   48 1
  87   47   48 1
  88   47   85 1
  89   47   86 1
  90   47   87 1
  91   48   88 1
  92   48   89 1
  93   49   50 2
  94   49   51 2

#	End of record

