#	Name: ASD01883627
#	Creating user name:	WinNT
#	Creation time:	15. 06. 2019 19:46

#	Modifying user name:	WinNT
#	Modification time:	15. 06. 2019 19:46

#	Program:	/corina/corina34_cracker 3.40 0067  02.08.2006

@<TRIPOS>MOLECULE
ASD01883627
  42   44    0    0    0
SMALL
NO_CHARGES


@<TRIPOS>ATOM
   1 C1            -0.5632     4.3380    -1.7449 C.ar    
   2 C2            -1.8477     4.4239    -2.2443 C.ar    
   3 C3            -2.9053     3.8767    -1.5400 C.ar    
   4 C4            -2.6849     3.2400    -0.3318 C.ar    
   5 C5            -1.4057     3.1460     0.1797 C.ar    
   6 C6            -0.3330     3.6962    -0.5258 C.ar    
   7 C7             1.0389     3.5998     0.0150 C.2     
   8 O8             1.3874     4.3164     1.1168 O.3     
   9 C9             1.9390     2.8066    -0.5801 C.2     
  10 C10            1.3629     5.7403     0.9990 C.3     
  11 C11            0.9526     6.3117     2.2732 C.3     
  12 C12            2.7577     6.2290     0.5576 C.3     
  13 C13            0.8347     7.8486     2.2174 C.3     
  14 C14            2.6146     7.5987    -0.0489 C.3     
  15 C15            2.2132     8.4388     2.3430 C.3     
  16 C16            2.8590     8.7248     0.9737 C.3     
  17 N17            3.2491     2.7596    -0.1049 N.pl3   
  18 N18            3.7523     3.3955     1.0419 N.2     
  19 C19            4.2832     2.0905    -0.6512 C.2     
  20 N20            5.3398     2.2994     0.0933 N.2     
  21 C21            5.0220     3.0885     1.1183 C.2     
  22 Cl22           0.7632     5.0197    -2.6335 Cl      
  23 Cl23          -1.1315     2.3471     1.6963 Cl      
  24 H24           -2.0273     4.9198    -3.1868 H       
  25 H25           -3.9079     3.9471    -1.9353 H       
  26 H26           -3.5153     2.8157     0.2130 H       
  27 H27            1.6502     2.2033    -1.4281 H       
  28 H28            0.6353     6.0187     0.2367 H       
  29 H29           -0.0143     5.8934     2.5526 H       
  30 H30            1.6852     6.0412     3.0336 H       
  31 H31            3.4189     6.2790     1.4227 H       
  32 H32            3.1692     5.5422    -0.1820 H       
  33 H33            0.3935     8.1477     1.2667 H       
  34 H34            0.2105     8.1980     3.0399 H       
  35 H35            3.3318     7.7003    -0.8635 H       
  36 H36            1.6077     7.7018    -0.4533 H       
  37 H37            2.1478     9.3712     2.9037 H       
  38 H38            2.8462     7.7425     2.8929 H       
  39 H39            3.9333     8.8483     1.1107 H       
  40 H40            2.4481     9.6538     0.5784 H       
  41 H41            4.2467     1.4871    -1.5462 H       
  42 H42            5.7019     3.4195     1.8894 H       
@<TRIPOS>BOND
   1    1    2 ar
   2    1    6 ar
   3    1   22 1
   4    2    3 ar
   5    2   24 1
   6    3    4 ar
   7    3   25 1
   8    4    5 ar
   9    4   26 1
  10    5    6 ar
  11    5   23 1
  12    6    7 1
  13    7    8 1
  14    7    9 2
  15    8   10 1
  16    9   17 1
  17    9   27 1
  18   10   11 1
  19   10   12 1
  20   10   28 1
  21   11   13 1
  22   11   29 1
  23   11   30 1
  24   12   14 1
  25   12   31 1
  26   12   32 1
  27   13   15 1
  28   13   33 1
  29   13   34 1
  30   14   16 1
  31   14   35 1
  32   14   36 1
  33   15   16 1
  34   15   37 1
  35   15   38 1
  36   16   39 1
  37   16   40 1
  38   17   19 1
  39   17   18 1
  40   18   21 2
  41   19   20 2
  42   19   41 1
  43   20   21 1
  44   21   42 1

#	End of record

