#	Name: ASD02039408
#	Creating user name:	WinNT
#	Creation time:	15. 06. 2019 20:18

#	Modifying user name:	WinNT
#	Modification time:	15. 06. 2019 20:18

#	Program:	/corina/corina34_cracker 3.40 0067  02.08.2006

@<TRIPOS>MOLECULE
ASD02039408
  51   54    0    0    0
SMALL
NO_CHARGES


@<TRIPOS>ATOM
   1 C1            -0.3838     0.3570    -0.6178 C.ar    
   2 C2             0.1901    -0.8622    -0.9306 C.ar    
   3 C3             0.4883     1.5129    -0.2003 C.3     
   4 N4             1.0036     2.1913    -1.3922 N.am    
   5 C5             0.1872     3.2009    -2.0708 C.3     
   6 C6             2.2286     1.8866    -1.8643 C.2     
   7 C7             3.0035     0.7938    -1.2514 C.2     
   8 C8             4.1941     0.3002    -1.6984 C.2     
   9 N9             2.6656     0.0984    -0.1355 N.2     
  10 C10            3.5890    -0.7874     0.1042 C.2     
  11 N11            4.5534    -0.6896    -0.8475 N.pl3   
  12 O12            2.6944     2.5139    -2.7964 O.2     
  13 C13            5.7646    -1.5088    -0.9375 C.3     
  14 C14           -0.6029    -1.9279    -1.3151 C.ar    
  15 C15           -1.9754    -1.7796    -1.3888 C.ar    
  16 C16           -2.5588    -0.5510    -1.0740 C.ar    
  17 C17           -1.7523     0.5192    -0.6926 C.ar    
  18 F18           -2.7500    -2.8207    -1.7648 F       
  19 C19           -4.0304    -0.3839    -1.1512 C.ar    
  20 C20           -4.6145     0.8055    -0.7197 C.ar    
  21 N21           -4.7795    -1.3659    -1.6356 N.ar    
  22 C22           -6.0899    -1.2570    -1.7214 C.ar    
  23 C23           -6.7353    -0.1071    -1.3067 C.ar    
  24 C24           -5.9888     0.9468    -0.7983 C.ar    
  25 C25           -6.8958    -2.4015    -2.2798 C.3     
  26 F26           -6.0521    -3.4903    -2.5246 F       
  27 F27           -7.8801    -2.7724    -1.3574 F       
  28 F28           -7.5034    -2.0042    -3.4757 F       
  29 C29            0.9053     4.5474    -2.2613 C.3     
  30 C30            0.2584     4.6057    -3.6552 C.3     
  31 C31            0.1937     3.0701    -3.6030 C.3     
  32 H32            1.2619    -0.9822    -0.8747 H       
  33 H33           -0.0981     2.2149     0.3924 H       
  34 H34            1.3222     1.1422     0.3958 H       
  35 H35           -0.8111     3.2951    -1.6434 H       
  36 H36            4.7445     0.6347    -2.5653 H       
  37 H37            3.5897    -1.4853     0.9284 H       
  38 H38            5.5608    -2.3937    -1.5403 H       
  39 H39            6.5620    -0.9286    -1.4018 H       
  40 H40            6.0722    -1.8135     0.0628 H       
  41 H41           -0.1492    -2.8773    -1.5584 H       
  42 H42           -2.1981     1.4719    -0.4476 H       
  43 H43           -4.0032     1.6056    -0.3290 H       
  44 H44           -7.8098    -0.0280    -1.3813 H       
  45 H45           -6.4702     1.8553    -0.4675 H       
  46 H46            0.5564     5.3278    -1.5850 H       
  47 H47            1.9917     4.4630    -2.2872 H       
  48 H48           -0.7210     5.0841    -3.6624 H       
  49 H49            0.9233     4.9886    -4.4294 H       
  50 H50            1.0855     2.5819    -3.9958 H       
  51 H51           -0.7297     2.6580    -4.0099 H       
@<TRIPOS>BOND
   1    1    2 ar
   2    1    3 1
   3    1   17 ar
   4    2   14 ar
   5    2   32 1
   6    3    4 1
   7    3   33 1
   8    3   34 1
   9    4    5 1
  10    4    6 am
  11    5   29 1
  12    5   31 1
  13    5   35 1
  14    6    7 1
  15    6   12 2
  16    7    8 2
  17    7    9 1
  18    8   11 1
  19    8   36 1
  20    9   10 2
  21   10   11 1
  22   10   37 1
  23   11   13 1
  24   13   38 1
  25   13   39 1
  26   13   40 1
  27   14   15 ar
  28   14   41 1
  29   15   16 ar
  30   15   18 1
  31   16   17 ar
  32   16   19 1
  33   17   42 1
  34   19   20 ar
  35   19   21 ar
  36   20   24 ar
  37   20   43 1
  38   21   22 ar
  39   22   23 ar
  40   22   25 1
  41   23   24 ar
  42   23   44 1
  43   24   45 1
  44   25   26 1
  45   25   27 1
  46   25   28 1
  47   29   30 1
  48   29   46 1
  49   29   47 1
  50   30   31 1
  51   30   48 1
  52   30   49 1
  53   31   50 1
  54   31   51 1

#	End of record

