#	Name: ASD00840156
#	Creating user name:	WinNT
#	Creation time:	15. 06. 2019 18:37

#	Modifying user name:	WinNT
#	Modification time:	15. 06. 2019 18:37

#	Program:	/corina/corina34_cracker 3.40 0067  02.08.2006

@<TRIPOS>MOLECULE
ASD00840156
  60   64    0    0    0
SMALL
NO_CHARGES


@<TRIPOS>ATOM
   1 N1            -0.1141     1.3293     0.3725 N.am    
   2 C2            -0.1062     0.0161     0.0881 C.2     
   3 C3             1.3382    -0.4364     0.1099 C.3     
   4 C4             2.1126     0.8172     0.4464 C.ar    
   5 C5             3.4561     1.0706     0.6123 C.ar    
   6 C6             3.8842     2.3506     0.9250 C.ar    
   7 C7             2.9564     3.3703     1.0692 C.ar    
   8 C8             1.6099     3.1157     0.9032 C.ar    
   9 C9             1.1743     1.8306     0.5883 C.ar    
  10 C10           -1.2329     2.0781     0.4367 C.2     
  11 O11           -1.1573     3.2615     0.6998 O.2     
  12 O12           -2.4341     1.5144     0.2093 O.3     
  13 O13            1.5388    -1.4477     1.1323 O.3     
  14 C14            0.8439    -2.5926     1.0036 C.2     
  15 O15            0.0905    -2.7432     0.0632 O.2     
  16 O16            0.9838    -3.5710     1.9171 O.3     
  17 C17            0.1772    -4.6573     1.7863 C.ar    
  18 C18            0.4573    -5.6191     0.8266 C.ar    
  19 C19           -0.3640    -6.7222     0.6956 C.ar    
  20 C20           -1.4646    -6.8679     1.5198 C.ar    
  21 C21           -1.7458    -5.9107     2.4771 C.ar    
  22 C22           -0.9240    -4.8089     2.6161 C.ar    
  23 O23           -1.0742    -0.6766    -0.1420 O.2     
  24 F24            5.2010     2.6039     1.0892 F       
  25 C25            1.6625    -0.1523    -2.3673 C.ar    
  26 C26            1.7469    -0.9623    -1.2419 C.ar    
  27 C27            2.2118    -2.2585    -1.3787 C.ar    
  28 C28            2.5776    -2.7008    -2.6428 C.ar    
  29 C29            2.4675    -1.8410    -3.7171 C.ar    
  30 N30            2.0206    -0.6099    -3.5553 N.ar    
  31 O31            1.2031     1.1187    -2.2474 O.3     
  32 C32            1.1401     1.9011    -3.4415 C.3     
  33 C33            0.6018     3.2945    -3.1104 C.3     
  34 Cl34           3.4904     4.9750     1.4610 Cl      
  35 C35           -3.5275     2.3058     0.3697 C.ar    
  36 C36           -4.3086     2.1888     1.5102 C.ar    
  37 C37           -5.4194     2.9943     1.6710 C.ar    
  38 C38           -5.7531     3.9162     0.6961 C.ar    
  39 C39           -4.9762     4.0348    -0.4415 C.ar    
  40 C40           -3.8610     3.2359    -0.6041 C.ar    
  41 H41            4.1749     0.2725     0.4992 H       
  42 H42            0.8925     3.9147     1.0178 H       
  43 H43            1.3164    -5.5053     0.1821 H       
  44 H44           -0.1464    -7.4712    -0.0514 H       
  45 H45           -2.1058    -7.7306     1.4154 H       
  46 H46           -2.6062    -6.0265     3.1195 H       
  47 H47           -1.1416    -4.0637     3.3670 H       
  48 H48            2.2886    -2.9111    -0.5215 H       
  49 H49            2.9447    -3.7066    -2.7840 H       
  50 H50            2.7511    -2.1800    -4.7026 H       
  51 H51            2.1380     1.9897    -3.8708 H       
  52 H52            0.4776     1.4166    -4.1588 H       
  53 H53            1.2642     3.7789    -2.3931 H       
  54 H54            0.5537     3.8913    -4.0212 H       
  55 H55           -0.3962     3.2059    -2.6810 H       
  56 H56           -4.0487     1.4683     2.2717 H       
  57 H57           -6.0278     2.9035     2.5587 H       
  58 H58           -6.6223     4.5445     0.8232 H       
  59 H59           -5.2392     4.7554    -1.2018 H       
  60 H60           -3.2519     3.3320    -1.4908 H       
@<TRIPOS>BOND
   1    1    2 am
   2    1    9 1
   3    1   10 am
   4    2    3 1
   5    2   23 2
   6    3    4 1
   7    3   13 1
   8    3   26 1
   9    4    5 ar
  10    4    9 ar
  11    5    6 ar
  12    5   41 1
  13    6    7 ar
  14    6   24 1
  15    7    8 ar
  16    7   34 1
  17    8    9 ar
  18    8   42 1
  19   10   11 2
  20   10   12 1
  21   12   35 1
  22   13   14 1
  23   14   15 2
  24   14   16 1
  25   16   17 1
  26   17   18 ar
  27   17   22 ar
  28   18   19 ar
  29   18   43 1
  30   19   20 ar
  31   19   44 1
  32   20   21 ar
  33   20   45 1
  34   21   22 ar
  35   21   46 1
  36   22   47 1
  37   25   26 ar
  38   25   30 ar
  39   25   31 1
  40   26   27 ar
  41   27   28 ar
  42   27   48 1
  43   28   29 ar
  44   28   49 1
  45   29   30 ar
  46   29   50 1
  47   31   32 1
  48   32   33 1
  49   32   51 1
  50   32   52 1
  51   33   53 1
  52   33   54 1
  53   33   55 1
  54   35   36 ar
  55   35   40 ar
  56   36   37 ar
  57   36   56 1
  58   37   38 ar
  59   37   57 1
  60   38   39 ar
  61   38   58 1
  62   39   40 ar
  63   39   59 1
  64   40   60 1

#	End of record

