#	Name: ASD01911491
#	Creating user name:	WinNT
#	Creation time:	15. 06. 2019 19:57

#	Modifying user name:	WinNT
#	Modification time:	15. 06. 2019 19:57

#	Program:	/corina/corina34_cracker 3.40 0067  02.08.2006

@<TRIPOS>MOLECULE
ASD01911491
  29   30    0    0    0
SMALL
NO_CHARGES


@<TRIPOS>ATOM
   1 O1             0.0291     1.3324     0.1531 O.3     
   2 C2             0.0481    -0.0094     0.1321 C.2     
   3 N3             1.0815    -0.7176    -0.3359 N.am    
   4 C4             2.3114    -0.1000    -0.8252 C.3     
   5 C5             2.0555     1.3698    -1.1703 C.3     
   6 C6             1.3029     2.0173     0.0002 C.3     
   7 O7            -0.9188    -0.6089     0.5587 O.2     
   8 C8             1.0606     3.4984    -0.2973 C.3     
   9 C9             2.1236     1.8748     1.2836 C.3     
  10 C10            0.9805    -2.1080    -0.3574 C.ar    
  11 C11            0.4959    -2.7458    -1.4938 C.ar    
  12 C12            0.4007    -4.1260    -1.5020 C.ar    
  13 C13            0.7953    -4.8241    -0.3680 C.ar    
  14 C14            1.2674    -4.1251     0.7258 C.ar    
  15 N15            1.3518    -2.8086     0.7022 N.ar    
  16 I16            0.6752    -6.9150    -0.3168 I       
  17 H17            3.0794    -0.1625    -0.0543 H       
  18 H18            2.6514    -0.6272    -1.7166 H       
  19 H19            3.0055     1.8816    -1.3240 H       
  20 H20            1.4521     1.4348    -2.0757 H       
  21 H21            0.5055     3.9483     0.5258 H       
  22 H22            2.0177     4.0075    -0.4112 H       
  23 H23            0.4861     3.5947    -1.2186 H       
  24 H24            2.3035     0.8187     1.4844 H       
  25 H25            3.0770     2.3895     1.1643 H       
  26 H26            1.5749     2.3147     2.1164 H       
  27 H27            0.1974    -2.1715    -2.3584 H       
  28 H28            0.0277    -4.6487    -2.3704 H       
  29 H29            1.5755    -4.6634     1.6100 H       
@<TRIPOS>BOND
   1    1    2 1
   2    1    6 1
   3    2    3 am
   4    2    7 2
   5    3    4 1
   6    3   10 1
   7    4    5 1
   8    4   17 1
   9    4   18 1
  10    5    6 1
  11    5   19 1
  12    5   20 1
  13    6    8 1
  14    6    9 1
  15    8   21 1
  16    8   22 1
  17    8   23 1
  18    9   24 1
  19    9   25 1
  20    9   26 1
  21   10   11 ar
  22   10   15 ar
  23   11   12 ar
  24   11   27 1
  25   12   13 ar
  26   12   28 1
  27   13   14 ar
  28   13   16 1
  29   14   15 ar
  30   14   29 1

#	End of record

