#	Name: ASD02039309
#	Creating user name:	WinNT
#	Creation time:	15. 06. 2019 20:18

#	Modifying user name:	WinNT
#	Modification time:	15. 06. 2019 20:18

#	Program:	/corina/corina34_cracker 3.40 0067  02.08.2006

@<TRIPOS>MOLECULE
ASD02039309
  50   52    0    0    0
SMALL
NO_CHARGES


@<TRIPOS>ATOM
   1 C1            -0.1345     1.5598    -0.1873 C.ar    
   2 C2            -0.1558     0.1782    -0.0590 C.ar    
   3 C3            -1.3623    -0.4920    -0.1423 C.ar    
   4 N4            -2.4878     0.1632    -0.3419 N.ar    
   5 C5            -2.5105     1.4838    -0.4698 C.ar    
   6 C6            -1.3322     2.2232    -0.3900 C.ar    
   7 C7            -3.8011     2.1788    -0.6938 C.ar    
   8 C8             1.1631     2.3214    -0.1016 C.3     
   9 N9             1.8165     2.3221    -1.4128 N.am    
  10 C10            1.4077     3.2893    -2.4344 C.3     
  11 C11            2.7936     1.4329    -1.6792 C.2     
  12 C12            3.1433     0.4030    -0.6856 C.2     
  13 C13            4.1488    -0.5128    -0.7931 C.2     
  14 C14            2.5764     4.2262    -2.7463 C.3     
  15 N15            2.5275     0.1960     0.5065 N.2     
  16 C16            3.1089    -0.7979     1.1136 C.2     
  17 N17            4.1202    -1.2618     0.3343 N.pl3   
  18 O18            3.3867     1.4808    -2.7400 O.2     
  19 C19            5.0183    -2.3737     0.6557 C.3     
  20 C20            0.9974     2.5447    -3.7065 C.3     
  21 C21           -4.9948     1.4520    -0.7711 C.ar    
  22 C22           -3.8437     3.5643    -0.8243 C.ar    
  23 N23           -4.9888     4.1858    -1.0226 N.ar    
  24 C24           -6.1335     3.5277    -1.1055 C.ar    
  25 C25           -6.1720     2.1434    -0.9804 C.ar    
  26 O26           -7.2858     4.2130    -1.3104 O.3     
  27 C27           -7.1839     5.6337    -1.4257 C.3     
  28 H28            0.7613    -0.3683     0.1041 H       
  29 H29           -1.3823    -1.5673    -0.0429 H       
  30 H30           -1.3520     3.2979    -0.4944 H       
  31 H31            0.9622     3.3480     0.2048 H       
  32 H32            1.8163     1.8452     0.6296 H       
  33 H33            0.5633     3.8719    -2.0660 H       
  34 H34            4.8358    -0.6200    -1.6195 H       
  35 H35            3.4482     3.6372    -3.0313 H       
  36 H36            2.3016     4.8890    -3.5669 H       
  37 H37            2.8119     4.8199    -1.8630 H       
  38 H38            2.8336    -1.1886     2.0821 H       
  39 H39            4.5913    -3.3049     0.2832 H       
  40 H40            5.9876    -2.2052     0.1866 H       
  41 H41            5.1440    -2.4384     1.7365 H       
  42 H42            0.1125     1.9410    -3.5047 H       
  43 H43            0.7739     3.2653    -4.4932 H       
  44 H44            1.8133     1.8974    -4.0278 H       
  45 H45           -4.9953     0.3768    -0.6700 H       
  46 H46           -2.9291     4.1354    -0.7622 H       
  47 H47           -7.1111     1.6146    -1.0497 H       
  48 H48           -6.5400     5.8846    -2.2688 H       
  49 H49           -8.1752     6.0572    -1.5871 H       
  50 H50           -6.7586     6.0431    -0.5094 H       
@<TRIPOS>BOND
   1    1    2 ar
   2    1    8 1
   3    1    6 ar
   4    2    3 ar
   5    2   28 1
   6    3    4 ar
   7    3   29 1
   8    4    5 ar
   9    5    6 ar
  10    5    7 1
  11    6   30 1
  12    7   21 ar
  13    7   22 ar
  14    8    9 1
  15    8   31 1
  16    8   32 1
  17    9   10 1
  18    9   11 am
  19   10   20 1
  20   10   14 1
  21   10   33 1
  22   11   12 1
  23   11   18 2
  24   12   13 2
  25   12   15 1
  26   13   17 1
  27   13   34 1
  28   14   35 1
  29   14   36 1
  30   14   37 1
  31   15   16 2
  32   16   17 1
  33   16   38 1
  34   17   19 1
  35   19   39 1
  36   19   40 1
  37   19   41 1
  38   20   42 1
  39   20   43 1
  40   20   44 1
  41   21   25 ar
  42   21   45 1
  43   22   23 ar
  44   22   46 1
  45   23   24 ar
  46   24   25 ar
  47   24   26 1
  48   25   47 1
  49   26   27 1
  50   27   48 1
  51   27   49 1
  52   27   50 1

#	End of record

