#	Name: ASD01230234
#	Creating user name:	WinNT
#	Creation time:	15. 06. 2019 19:12

#	Modifying user name:	WinNT
#	Modification time:	15. 06. 2019 19:12

#	Program:	/corina/corina34_cracker 3.40 0067  02.08.2006

@<TRIPOS>MOLECULE
ASD01230234
  49   52    0    0    0
SMALL
NO_CHARGES


@<TRIPOS>ATOM
   1 S1            -0.0203     1.6432     0.0111 S.o2    
   2 N2             0.0021    -0.0041     0.0020 N.am    
   3 C3             1.0565    -0.7105    -0.1009 C.2     
   4 N4             2.3195    -0.1992    -0.2593 N.pl3   
   5 C5             2.5396     1.1369    -0.8015 C.3     
   6 C6             1.7188     2.1515    -0.0028 C.3     
   7 C7             0.9676    -2.2277    -0.0654 C.3     
   8 C8             2.0219    -2.7686    -1.0345 C.3     
   9 C9             3.4262    -2.3703    -0.6005 C.3     
  10 C10            3.4480    -1.0429     0.1478 C.3     
  11 O11            1.2351    -2.6995     1.2567 O.3     
  12 C12           -0.4051    -2.6712    -0.5014 C.ar    
  13 C13           -1.4104    -2.8256     0.4352 C.ar    
  14 C14           -2.6695    -3.2320     0.0381 C.ar    
  15 C15           -2.9249    -3.4853    -1.3018 C.ar    
  16 C16           -1.9145    -3.3296    -2.2396 C.ar    
  17 C17           -0.6586    -2.9175    -1.8381 C.ar    
  18 O18           -4.1627    -3.8857    -1.6950 O.3     
  19 C19           -4.3533    -4.1283    -3.0902 C.3     
  20 C20           -5.7761    -4.5605    -3.3352 C.ar    
  21 C21           -6.7488    -3.6156    -3.6024 C.ar    
  22 C22           -8.0556    -4.0129    -3.8278 C.ar    
  23 C23           -8.3867    -5.3569    -3.7852 C.ar    
  24 C24           -7.4126    -6.2997    -3.5179 C.ar    
  25 C25           -6.1067    -5.9021    -3.2981 C.ar    
  26 F26           -9.0073    -3.0901    -4.0887 F       
  27 O27           -0.6472     1.9882    -1.2166 O.2     
  28 O28           -0.6236     1.9749     1.2541 O.2     
  29 H29            3.5978     1.3884    -0.7299 H       
  30 H30            2.2300     1.1608    -1.8463 H       
  31 H31            1.8064     3.1345    -0.4654 H       
  32 H32            2.0924     2.1965     1.0202 H       
  33 H33            1.9530    -3.8559    -1.0667 H       
  34 H34            1.8294    -2.3698    -2.0305 H       
  35 H35            3.8290    -3.1480     0.0483 H       
  36 H36            4.0588    -2.2878    -1.4843 H       
  37 H37            4.3813    -0.5235    -0.0697 H       
  38 H38            3.3855    -1.2337     1.2192 H       
  39 H39            0.6211    -2.3657     1.9251 H       
  40 H40           -1.2110    -2.6286     1.4782 H       
  41 H41           -3.4544    -3.3528     0.7701 H       
  42 H42           -2.1108    -3.5262    -3.2833 H       
  43 H43            0.1271    -2.7916    -2.5684 H       
  44 H44           -4.1497    -3.2149    -3.6490 H       
  45 H45           -3.6732    -4.9143    -3.4186 H       
  46 H46           -6.4895    -2.5677    -3.6351 H       
  47 H47           -9.4060    -5.6679    -3.9606 H       
  48 H48           -7.6706    -7.3479    -3.4846 H       
  49 H49           -5.3451    -6.6400    -3.0936 H       
@<TRIPOS>BOND
   1    1    2 am
   2    1    6 1
   3    1   27 2
   4    1   28 2
   5    2    3 2
   6    3    4 1
   7    3    7 1
   8    4    5 1
   9    4   10 1
  10    5    6 1
  11    5   29 1
  12    5   30 1
  13    6   31 1
  14    6   32 1
  15    7    8 1
  16    7   11 1
  17    7   12 1
  18    8    9 1
  19    8   33 1
  20    8   34 1
  21    9   10 1
  22    9   35 1
  23    9   36 1
  24   10   37 1
  25   10   38 1
  26   11   39 1
  27   12   13 ar
  28   12   17 ar
  29   13   14 ar
  30   13   40 1
  31   14   15 ar
  32   14   41 1
  33   15   16 ar
  34   15   18 1
  35   16   17 ar
  36   16   42 1
  37   17   43 1
  38   18   19 1
  39   19   20 1
  40   19   44 1
  41   19   45 1
  42   20   21 ar
  43   20   25 ar
  44   21   22 ar
  45   21   46 1
  46   22   23 ar
  47   22   26 1
  48   23   24 ar
  49   23   47 1
  50   24   25 ar
  51   24   48 1
  52   25   49 1

#	End of record

