#	Name: ASD01884436
#	Creating user name:	WinNT
#	Creation time:	15. 06. 2019 19:48

#	Modifying user name:	WinNT
#	Modification time:	15. 06. 2019 19:48

#	Program:	/corina/corina34_cracker 3.40 0067  02.08.2006

@<TRIPOS>MOLECULE
ASD01884436
  35   37    0    0    0
SMALL
NO_CHARGES


@<TRIPOS>ATOM
   1 C1            -0.0164     1.3576     0.0095 C.2     
   2 C2             0.0021    -0.0041     0.0020 C.2     
   3 C3             1.2440    -0.6750    -0.0134 C.2     
   4 C4             2.4024     0.0466    -0.0206 C.2     
   5 N5             2.3700     1.4022    -0.0130 N.am    
   6 C6             1.1987     2.0651     0.0017 C.2     
   7 C7             1.2898    -2.1583    -0.0214 C.ar    
   8 C8             3.6266     2.1553    -0.0205 C.3     
   9 O9             1.1912     3.2856     0.0079 O.2     
  10 C10            4.0445     2.4212    -1.4438 C.ar    
  11 C11            3.6207     3.5701    -2.0852 C.ar    
  12 C12            4.0036     3.8145    -3.3905 C.ar    
  13 C13            4.8112     2.9090    -4.0553 C.ar    
  14 C14            5.2351     1.7593    -3.4129 C.ar    
  15 C15            4.8561     1.5188    -2.1056 C.ar    
  16 C16            0.8127    -2.8780     1.0724 C.ar    
  17 C17            1.8047    -2.8356    -1.1249 C.ar    
  18 C18            1.8449    -4.2149    -1.1283 C.ar    
  19 C19            1.3744    -4.9262    -0.0365 C.ar    
  20 C20            0.8568    -4.2571     1.0606 C.ar    
  21 Cl21           5.2921     3.2150    -5.6951 Cl      
  22 F22            1.4152    -6.2766    -0.0441 F       
  23 H23           -0.9563     1.8894     0.0169 H       
  24 H24           -0.9217    -0.5635     0.0082 H       
  25 H25            3.3528    -0.4663    -0.0321 H       
  26 H26            3.4856     3.1027     0.4997 H       
  27 H27            4.4004     1.5759     0.4831 H       
  28 H28            2.9899     4.2767    -1.5663 H       
  29 H29            3.6721     4.7119    -3.8916 H       
  30 H30            5.8656     1.0521    -3.9313 H       
  31 H31            5.1869     0.6214    -1.6040 H       
  32 H32            0.4094    -2.3571     1.9282 H       
  33 H33            2.1714    -2.2818    -1.9766 H       
  34 H34            2.2434    -4.7406    -1.9833 H       
  35 H35            0.4911    -4.8155     1.9096 H       
@<TRIPOS>BOND
   1    1    2 2
   2    1    6 1
   3    1   23 1
   4    2    3 1
   5    2   24 1
   6    3    4 2
   7    3    7 1
   8    4    5 1
   9    4   25 1
  10    5    6 am
  11    5    8 1
  12    6    9 2
  13    7   16 ar
  14    7   17 ar
  15    8   10 1
  16    8   26 1
  17    8   27 1
  18   10   11 ar
  19   10   15 ar
  20   11   12 ar
  21   11   28 1
  22   12   13 ar
  23   12   29 1
  24   13   14 ar
  25   13   21 1
  26   14   15 ar
  27   14   30 1
  28   15   31 1
  29   16   20 ar
  30   16   32 1
  31   17   18 ar
  32   17   33 1
  33   18   19 ar
  34   18   34 1
  35   19   20 ar
  36   19   22 1
  37   20   35 1

#	End of record

