#	Name: ASD01941047
#	Creating user name:	WinNT
#	Creation time:	15. 06. 2019 20:13

#	Modifying user name:	WinNT
#	Modification time:	15. 06. 2019 20:13

#	Program:	/corina/corina34_cracker 3.40 0067  02.08.2006

@<TRIPOS>MOLECULE
ASD01941047
  43   45    0    0    0
SMALL
NO_CHARGES


@<TRIPOS>ATOM
   1 N1            -0.0130     1.4147    -0.4129 N.am    
   2 C2             0.0277     0.0615    -0.4211 C.2     
   3 N3            -1.0430    -0.6734    -0.2923 N.2     
   4 C4            -2.2538    -0.1184    -0.1433 C.2     
   5 C5            -2.3651     1.2790    -0.1264 C.2     
   6 C6            -1.1914     2.0615    -0.2624 C.2     
   7 N7            -3.3747    -0.8887    -0.0090 N.am    
   8 C8            -4.5913    -0.3384     0.1398 C.2     
   9 C9            -4.7771     1.0480     0.1654 C.2     
  10 C10           -3.6832     1.8893     0.0363 C.2     
  11 C11           -3.2467    -2.3479    -0.0282 C.3     
  12 O12           -5.5622    -1.0690     0.2557 O.2     
  13 O13           -1.2433     3.2787    -0.2529 O.2     
  14 N14           -3.8345     3.2634     0.0581 N.pl3   
  15 C15           -3.2884     4.0107     1.1072 C.ar    
  16 C16           -2.7078     3.3669     2.1912 C.ar    
  17 C17           -2.1692     4.1074     3.2261 C.ar    
  18 C18           -2.2081     5.4892     3.1839 C.ar    
  19 C19           -2.7863     6.1356     2.1056 C.ar    
  20 C20           -3.3211     5.4010     1.0637 C.ar    
  21 F21           -3.8856     6.0318     0.0109 F       
  22 I22           -1.3905     6.6062     4.7563 I       
  23 C23            1.2260     2.1823    -0.5617 C.3     
  24 C24            1.4832     2.4529    -2.0454 C.3     
  25 C25            2.8379     3.1447    -2.2103 C.3     
  26 O26            3.1311     3.2926    -3.6010 O.3     
  27 O27            0.4517     3.2964    -2.5615 O.3     
  28 F28           -6.0165     1.5641     0.3165 F       
  29 H29            0.9829    -0.4286    -0.5391 H       
  30 H30           -3.0910    -2.7124     0.9872 H       
  31 H31           -4.1571    -2.7872    -0.4362 H       
  32 H32           -2.3969    -2.6300    -0.6498 H       
  33 H33           -4.3193     3.7093    -0.6540 H       
  34 H34           -2.6773     2.2879     2.2259 H       
  35 H35           -1.7175     3.6063     4.0694 H       
  36 H36           -2.8155     7.2148     2.0757 H       
  37 H37            1.1326     3.1294    -0.0304 H       
  38 H38            2.0579     1.6133    -0.1466 H       
  39 H39            1.4882     1.5095    -2.5913 H       
  40 H40            2.8038     4.1272    -1.7396 H       
  41 H41            3.6135     2.5421    -1.7376 H       
  42 H42            3.9773     3.7247    -3.7808 H       
  43 H43            0.3889     4.1552    -2.1215 H       
@<TRIPOS>BOND
   1    1    2 1
   2    1   23 1
   3    1    6 am
   4    2    3 2
   5    2   29 1
   6    3    4 1
   7    4    5 2
   8    4    7 1
   9    5    6 1
  10    5   10 1
  11    6   13 2
  12    7    8 am
  13    7   11 1
  14    8    9 1
  15    8   12 2
  16    9   10 2
  17    9   28 1
  18   10   14 1
  19   11   30 1
  20   11   31 1
  21   11   32 1
  22   14   15 1
  23   14   33 1
  24   15   16 ar
  25   15   20 ar
  26   16   17 ar
  27   16   34 1
  28   17   18 ar
  29   17   35 1
  30   18   19 ar
  31   18   22 1
  32   19   20 ar
  33   19   36 1
  34   20   21 1
  35   23   24 1
  36   23   37 1
  37   23   38 1
  38   24   25 1
  39   24   27 1
  40   24   39 1
  41   25   26 1
  42   25   40 1
  43   25   41 1
  44   26   42 1
  45   27   43 1

#	End of record

