#	Name: ASD01913125
#	Creating user name:	WinNT
#	Creation time:	15. 06. 2019 20:01

#	Modifying user name:	WinNT
#	Modification time:	15. 06. 2019 20:01

#	Program:	/corina/corina34_cracker 3.40 0067  02.08.2006

@<TRIPOS>MOLECULE
ASD01913125
  44   47    0    0    0
SMALL
NO_CHARGES


@<TRIPOS>ATOM
   1 C1            -0.8048     1.9745     1.1345 C.ar    
   2 C2            -0.8254     0.5477     0.7313 C.2     
   3 N3            -1.8532    -0.3229     0.9025 N.2     
   4 C4            -1.4997    -1.4796     0.4235 C.2     
   5 O5            -0.2545    -1.3915    -0.0627 O.3     
   6 C6             0.1767    -0.1292     0.1176 C.2     
   7 C7            -2.3546    -2.7207     0.4168 C.3     
   8 C8            -2.5714    -3.1837    -1.0257 C.3     
   9 C9            -3.4665    -4.4250    -1.0357 C.3     
  10 C10           -2.7758    -5.5539    -0.2642 C.3     
  11 N11           -2.4332    -5.0678     1.0794 N.am    
  12 C12           -1.6513    -3.8303     1.2048 C.3     
  13 C13           -2.8288    -5.7443     2.1759 C.2     
  14 C14           -3.6848    -6.9402     2.0372 C.ar    
  15 O15           -2.4811    -5.3703     3.2792 O.2     
  16 N16            0.2760     2.7079     0.9019 N.ar    
  17 C17            0.3352     3.9793     1.2439 C.ar    
  18 C18           -0.7370     4.5989     1.8627 C.ar    
  19 C19           -1.8888     3.8656     2.1244 C.ar    
  20 C20           -1.9234     2.5348     1.7492 C.ar    
  21 C21           -3.3285    -7.9579     1.1498 C.ar    
  22 C22           -4.1306    -9.0719     1.0247 C.ar    
  23 C23           -5.2894    -9.1830     1.7779 C.ar    
  24 C24           -5.6481    -8.1753     2.6601 C.ar    
  25 C25           -4.8502    -7.0597     2.7973 C.ar    
  26 F26           -6.0720   -10.2770     1.6514 F       
  27 F27           -0.6647     5.9027     2.2091 F       
  28 H28            1.1405     0.2672    -0.1658 H       
  29 H29           -3.3179    -2.5014     0.8772 H       
  30 H30           -3.0496    -2.3866    -1.5950 H       
  31 H31           -1.6096    -3.4259    -1.4778 H       
  32 H32           -4.4194    -4.1902    -0.5614 H       
  33 H33           -3.6396    -4.7404    -2.0646 H       
  34 H34           -3.4497    -6.4068    -0.1833 H       
  35 H35           -1.8674    -5.8517    -0.7877 H       
  36 H36           -0.6511    -3.9875     0.8011 H       
  37 H37           -1.5832    -3.5459     2.2548 H       
  38 H38            1.2320     4.5451     1.0391 H       
  39 H39           -2.7387     4.3258     2.6064 H       
  40 H40           -2.8022     1.9357     1.9373 H       
  41 H41           -2.4263    -7.8722     0.5624 H       
  42 H42           -3.8561    -9.8594     0.3384 H       
  43 H43           -6.5519    -8.2667     3.2442 H       
  44 H44           -5.1303    -6.2755     3.4850 H       
@<TRIPOS>BOND
   1    1    2 1
   2    1   16 ar
   3    1   20 ar
   4    2    3 1
   5    2    6 2
   6    3    4 2
   7    4    5 1
   8    4    7 1
   9    5    6 1
  10    6   28 1
  11    7    8 1
  12    7   12 1
  13    7   29 1
  14    8    9 1
  15    8   30 1
  16    8   31 1
  17    9   10 1
  18    9   32 1
  19    9   33 1
  20   10   11 1
  21   10   34 1
  22   10   35 1
  23   11   12 1
  24   11   13 am
  25   12   36 1
  26   12   37 1
  27   13   14 1
  28   13   15 2
  29   14   21 ar
  30   14   25 ar
  31   16   17 ar
  32   17   18 ar
  33   17   38 1
  34   18   19 ar
  35   18   27 1
  36   19   20 ar
  37   19   39 1
  38   20   40 1
  39   21   22 ar
  40   21   41 1
  41   22   23 ar
  42   22   42 1
  43   23   24 ar
  44   23   26 1
  45   24   25 ar
  46   24   43 1
  47   25   44 1

#	End of record

