#	Name: ASD04910111
#	Creating user name:	WinNT
#	Creation time:	15. 06. 2019 20:55

#	Modifying user name:	WinNT
#	Modification time:	15. 06. 2019 20:55

#	Program:	/corina/corina34_cracker 3.40 0067  02.08.2006

@<TRIPOS>MOLECULE
ASD04910111
  24   25    0    0    0
SMALL
NO_CHARGES


@<TRIPOS>ATOM
   1 N1            -0.0169     1.3937     0.0097 N.pl3   
   2 C2             0.0021    -0.0041     0.0020 C.ar    
   3 C3             1.2143    -0.6824    -0.0132 C.ar    
   4 C4             1.2326    -2.0626    -0.0203 C.ar    
   5 C5             0.0396    -2.7729    -0.0122 C.ar    
   6 C6            -1.1722    -2.0953     0.0025 C.ar    
   7 C7            -1.1912    -0.7151     0.0154 C.ar    
   8 N8             0.0587    -4.1759    -0.0195 N.pl3   
   9 N9             1.2023    -4.9848    -0.0342 N.2     
  10 C10            0.8183    -6.2363    -0.0361 C.2     
  11 C11           -0.5802    -6.2652    -0.0227 C.2     
  12 C12           -1.0233    -4.9863    -0.0076 C.2     
  13 C13           -1.4414    -7.5018    -0.0199 C.3     
  14 F14           -0.6255    -8.6383    -0.0323 F       
  15 F15           -2.2384    -7.5125     1.1298 F       
  16 F16           -2.2597    -7.5028    -1.1546 F       
  17 H17            0.8165     1.8901     0.0044 H       
  18 H18           -0.8634     1.8672     0.0163 H       
  19 H19            2.1422    -0.1299    -0.0198 H       
  20 H20            2.1750    -2.5900    -0.0325 H       
  21 H21           -2.0999    -2.6482     0.0080 H       
  22 H22           -2.1338    -0.1882     0.0317 H       
  23 H23            1.4692    -7.0980    -0.0468 H       
  24 H24           -2.0558    -4.6701     0.0090 H       
@<TRIPOS>BOND
   1    1    2 1
   2    1   17 1
   3    1   18 1
   4    2    3 ar
   5    2    7 ar
   6    3    4 ar
   7    3   19 1
   8    4    5 ar
   9    4   20 1
  10    5    6 ar
  11    5    8 1
  12    6    7 ar
  13    6   21 1
  14    7   22 1
  15    8    9 1
  16    8   12 1
  17    9   10 2
  18   10   11 1
  19   10   23 1
  20   11   12 2
  21   11   13 1
  22   12   24 1
  23   13   14 1
  24   13   15 1
  25   13   16 1

#	End of record

