#	Name: ASD03730782
#	Creating user name:	WinNT
#	Creation time:	15. 06. 2019 20:44

#	Modifying user name:	WinNT
#	Modification time:	15. 06. 2019 20:44

#	Program:	/corina/corina34_cracker 3.40 0067  02.08.2006

@<TRIPOS>MOLECULE
ASD03730782
  54   59    0    0    0
SMALL
NO_CHARGES


@<TRIPOS>ATOM
   1 N1            -0.0162     1.3436     0.0094 N.am    
   2 C2             0.0562     0.0126     0.2090 C.2     
   3 O3             1.1402    -0.5294     0.3069 O.2     
   4 N4            -1.0730    -0.7176     0.2999 N.am    
   5 C5            -0.9942    -2.1643     0.5168 C.3     
   6 C6            -2.4071    -2.7479     0.5815 C.3     
   7 O7             2.5557    -7.0754     3.4686 O.3     
   8 C8             3.0269    -8.3614     3.9126 C.3     
   9 O9             1.8635    -8.9653     4.5082 O.3     
  10 C10            0.7935    -8.3997     3.8757 C.ar    
  11 C11            1.2195    -7.2371     3.2375 C.ar    
  12 C12           -0.5310    -8.7898     3.7907 C.ar    
  13 C13           -1.4460    -8.0267     3.0716 C.ar    
  14 C14           -1.0103    -6.8629     2.4453 C.ar    
  15 C15            0.3109    -6.4746     2.5230 C.ar    
  16 O16           -2.7752    -8.2385     2.8509 O.3     
  17 C17           -2.2177    -6.2539     1.7841 C.3     
  18 C18           -3.3895    -7.0051     2.4306 C.3     
  19 N19           -2.3284    -4.1946     0.7984 N.am    
  20 C20           -2.3059    -4.7729     2.0158 C.2     
  21 C21           -2.1986    -6.4229     0.2938 C.ar    
  22 C22           -2.1309    -7.5176    -0.5387 C.ar    
  23 C23           -2.1333    -7.3454    -1.9115 C.ar    
  24 C24           -2.2031    -6.0714    -2.4452 C.ar    
  25 C25           -2.2701    -4.9717    -1.6155 C.ar    
  26 C26           -2.2687    -5.1356    -0.2324 C.ar    
  27 O27           -2.3490    -4.2078     3.0881 O.2     
  28 C28            1.1517     2.1167     0.0123 C.ar    
  29 C29            2.3302     1.5976    -0.5068 C.ar    
  30 C30            3.4807     2.3618    -0.5034 C.ar    
  31 C31            3.4593     3.6448     0.0171 C.ar    
  32 C32            2.2850     4.1642     0.5352 C.ar    
  33 C33            1.1311     3.4052     0.5290 C.ar    
  34 F34            4.5858     4.3905     0.0198 F       
  35 H35           -0.8767     1.7654    -0.1401 H       
  36 H36           -1.9377    -0.2852     0.2218 H       
  37 H37           -0.4478    -2.6258    -0.3057 H       
  38 H38           -0.4756    -2.3634     1.4546 H       
  39 H39           -2.9536    -2.2864     1.4040 H       
  40 H40           -2.9257    -2.5488    -0.3563 H       
  41 H41            3.3758    -8.9542     3.0671 H       
  42 H42            3.8189    -8.2445     4.6524 H       
  43 H43           -0.8571    -9.6925     4.2857 H       
  44 H44            0.6376    -5.5733     2.0257 H       
  45 H45           -4.1776    -7.1938     1.7017 H       
  46 H46           -3.7770    -6.4540     3.2875 H       
  47 H47           -2.0762    -8.5115    -0.1197 H       
  48 H48           -2.0811    -8.2039    -2.5647 H       
  49 H49           -2.2049    -5.9371    -3.5168 H       
  50 H50           -2.3239    -3.9800    -2.0398 H       
  51 H51            2.3474     0.5969    -0.9125 H       
  52 H52            4.3977     1.9583    -0.9068 H       
  53 H53            2.2704     5.1650     0.9411 H       
  54 H54            0.2144     3.8122     0.9295 H       
@<TRIPOS>BOND
   1    1    2 am
   2    1   28 1
   3    1   35 1
   4    2    3 2
   5    2    4 am
   6    4    5 1
   7    4   36 1
   8    5    6 1
   9    5   37 1
  10    5   38 1
  11    6   19 1
  12    6   39 1
  13    6   40 1
  14    7    8 1
  15    7   11 1
  16    8    9 1
  17    8   41 1
  18    8   42 1
  19    9   10 1
  20   10   11 ar
  21   10   12 ar
  22   11   15 ar
  23   12   13 ar
  24   12   43 1
  25   13   14 ar
  26   13   16 1
  27   14   15 ar
  28   14   17 1
  29   15   44 1
  30   16   18 1
  31   17   18 1
  32   17   20 1
  33   17   21 1
  34   18   45 1
  35   18   46 1
  36   19   20 am
  37   19   26 1
  38   20   27 2
  39   21   22 ar
  40   21   26 ar
  41   22   23 ar
  42   22   47 1
  43   23   24 ar
  44   23   48 1
  45   24   25 ar
  46   24   49 1
  47   25   26 ar
  48   25   50 1
  49   28   29 ar
  50   28   33 ar
  51   29   30 ar
  52   29   51 1
  53   30   31 ar
  54   30   52 1
  55   31   32 ar
  56   31   34 1
  57   32   33 ar
  58   32   53 1
  59   33   54 1

#	End of record

