#	Name: ASD01883616
#	Creating user name:	WinNT
#	Creation time:	15. 06. 2019 19:46

#	Modifying user name:	WinNT
#	Modification time:	15. 06. 2019 19:46

#	Program:	/corina/corina34_cracker 3.40 0067  02.08.2006

@<TRIPOS>MOLECULE
ASD01883616
  48   51    0    0    0
SMALL
NO_CHARGES


@<TRIPOS>ATOM
   1 C1             0.0155     1.1640    -1.5520 C.2     
   2 C2             0.0355    -0.0660    -0.8788 C.2     
   3 C3            -1.1791    -0.6095    -0.4110 C.2     
   4 C4            -2.3458     0.0342    -0.6022 C.2     
   5 N5            -2.4111     1.2323    -1.2521 N.pl3   
   6 C6            -1.2751     1.8322    -1.7324 C.2     
   7 C7            -3.4584     2.0605    -1.5625 C.2     
   8 C8            -2.9454     3.1228    -2.2184 C.2     
   9 N9            -1.6206     2.9679    -2.3113 N.2     
  10 C10           -4.9106     1.8280    -1.2337 C.3     
  11 C11           -5.6050     1.1708    -2.4281 C.3     
  12 C12           -7.0794     0.9347    -2.0943 C.3     
  13 C13            1.3105    -0.7825    -0.6631 C.ar    
  14 C14            1.7965    -0.9723     0.6324 C.ar    
  15 C15            2.9851    -1.6406     0.8294 C.ar    
  16 C16            3.7003    -2.1254    -0.2589 C.ar    
  17 C17            3.2200    -1.9385    -1.5494 C.ar    
  18 C18            2.0293    -1.2763    -1.7540 C.ar    
  19 O19            4.8716    -2.7831    -0.0608 O.3     
  20 C20            6.0202    -2.0570    -0.0684 C.ar    
  21 C21            7.2526    -2.6887     0.0147 C.ar    
  22 N22            8.3694    -1.9881     0.0082 N.ar    
  23 C23            8.3633    -0.6724    -0.0771 C.ar    
  24 C24            7.1743     0.0280    -0.1631 C.ar    
  25 C25            5.9773    -0.6693    -0.1654 C.ar    
  26 C26            7.3153    -4.1911     0.1139 C.3     
  27 C27            1.2243     1.7533    -2.0442 C.1     
  28 N28            2.1832     2.2207    -2.4347 N.1     
  29 H29           -1.1729    -1.5565     0.1082 H       
  30 H30           -3.2570    -0.4109    -0.2307 H       
  31 H31           -3.5104     3.9599    -2.6010 H       
  32 H32           -4.9862     1.1744    -0.3647 H       
  33 H33           -5.3906     2.7816    -1.0139 H       
  34 H34           -5.5294     1.8244    -3.2971 H       
  35 H35           -5.1251     0.2171    -2.6479 H       
  36 H36           -7.1551     0.2811    -1.2253 H       
  37 H37           -7.5594     1.8884    -1.8746 H       
  38 H38           -7.5742     0.4665    -2.9453 H       
  39 H39            1.2414    -0.5954     1.4787 H       
  40 H40            3.3617    -1.7874     1.8309 H       
  41 H41            3.7788    -2.3165    -2.3928 H       
  42 H42            1.6565    -1.1318    -2.7573 H       
  43 H43            9.2998    -0.1344    -0.0793 H       
  44 H44            7.1789     1.1058    -0.2319 H       
  45 H45            5.0337    -0.1483    -0.2319 H       
  46 H46            7.3655    -4.6196    -0.8870 H       
  47 H47            8.2015    -4.4813     0.6783 H       
  48 H48            6.4241    -4.5591     0.6224 H       
@<TRIPOS>BOND
   1    1    2 2
   2    1   27 1
   3    1    6 1
   4    2    3 1
   5    2   13 1
   6    3    4 2
   7    3   29 1
   8    4    5 1
   9    4   30 1
  10    5    6 1
  11    5    7 1
  12    6    9 2
  13    7    8 2
  14    7   10 1
  15    8    9 1
  16    8   31 1
  17   10   11 1
  18   10   32 1
  19   10   33 1
  20   11   12 1
  21   11   34 1
  22   11   35 1
  23   12   36 1
  24   12   37 1
  25   12   38 1
  26   13   14 ar
  27   13   18 ar
  28   14   15 ar
  29   14   39 1
  30   15   16 ar
  31   15   40 1
  32   16   17 ar
  33   16   19 1
  34   17   18 ar
  35   17   41 1
  36   18   42 1
  37   19   20 1
  38   20   21 ar
  39   20   25 ar
  40   21   22 ar
  41   21   26 1
  42   22   23 ar
  43   23   24 ar
  44   23   43 1
  45   24   25 ar
  46   24   44 1
  47   25   45 1
  48   26   46 1
  49   26   47 1
  50   26   48 1
  51   27   28 3

#	End of record

