#	Name: ASD01940028
#	Creating user name:	WinNT
#	Creation time:	15. 06. 2019 20:11

#	Modifying user name:	WinNT
#	Modification time:	15. 06. 2019 20:11

#	Program:	/corina/corina34_cracker 3.40 0067  02.08.2006

@<TRIPOS>MOLECULE
ASD01940028
  47   49    0    0    0
SMALL
NO_CHARGES


@<TRIPOS>ATOM
   1 C1            -0.1652     1.1879    -0.0603 C.ar    
   2 C2            -0.1625    -0.0643    -0.6613 C.ar    
   3 C3            -1.2725    -0.8794    -0.5627 C.ar    
   4 C4            -2.3907    -0.4479     0.1362 C.ar    
   5 C5            -2.3945     0.8030     0.7365 C.ar    
   6 C6            -1.2829     1.6169     0.6440 C.ar    
   7 N7             0.9596     2.0145    -0.1593 N.pl3   
   8 C8             0.8041     3.3858    -0.2530 C.2     
   9 C9             1.8028     4.3489    -0.2308 C.2     
  10 C10            1.3229     5.6545    -0.3468 C.2     
  11 N11            0.0373     5.7990    -0.4578 N.2     
  12 S12           -0.6676     4.2584    -0.4292 S.3     
  13 O13            2.1611     6.7234    -0.3432 O.3     
  14 C14            3.2324     4.0246    -0.0976 C.2     
  15 N15            3.8075     3.9435     1.1535 N.pl3   
  16 N16            3.9568     3.8136    -1.1647 N.2     
  17 C17            5.2303     3.6207     1.2861 C.3     
  18 C18            6.0584     4.8999     1.1495 C.3     
  19 C19            5.4851     2.9922     2.6576 C.3     
  20 O20            5.2190     3.9550     3.6795 O.3     
  21 O21           -3.4836    -1.2510     0.2325 O.3     
  22 C22           -3.3710    -2.3980     0.9526 C.ar    
  23 C23           -4.4157    -3.3119     0.9724 C.ar    
  24 C24           -4.2978    -4.4787     1.7066 C.ar    
  25 C25           -3.1400    -4.7337     2.4200 C.ar    
  26 C26           -2.2094    -2.6602     1.6649 C.ar    
  27 Cl27          -5.8682    -2.9911     0.0774 Cl      
  28 C28           -2.0991    -3.8237     2.4014 C.ar    
  29 Cl29          -5.6032    -5.6228     1.7332 Cl      
  30 H30            0.7076    -0.4001    -1.2059 H       
  31 H31           -1.2705    -1.8531    -1.0300 H       
  32 H32           -3.2654     1.1384     1.2800 H       
  33 H33           -1.2858     2.5904     1.1117 H       
  34 H34            1.8483     1.6258    -0.1623 H       
  35 H35            2.4742     6.9806    -1.2212 H       
  36 H36            3.2699     4.1001     1.9456 H       
  37 H37            4.8988     3.5998    -1.0770 H       
  38 H38            5.5175     2.9168     0.5049 H       
  39 H39            7.1170     4.6598     1.2482 H       
  40 H40            5.8769     5.3477     0.1724 H       
  41 H41            5.7712     5.6038     1.9307 H       
  42 H42            4.8299     2.1313     2.7901 H       
  43 H43            6.5247     2.6711     2.7227 H       
  44 H44            5.3600     3.6247     4.5774 H       
  45 H45           -3.0494    -5.6448     2.9927 H       
  46 H46           -1.3937    -1.9526     1.6473 H       
  47 H47           -1.1969    -4.0250     2.9597 H       
@<TRIPOS>BOND
   1    1    2 ar
   2    1    7 1
   3    1    6 ar
   4    2    3 ar
   5    2   30 1
   6    3    4 ar
   7    3   31 1
   8    4    5 ar
   9    4   21 1
  10    5    6 ar
  11    5   32 1
  12    6   33 1
  13    7    8 1
  14    7   34 1
  15    8    9 2
  16    8   12 1
  17    9   10 1
  18    9   14 1
  19   10   11 2
  20   10   13 1
  21   11   12 1
  22   13   35 1
  23   14   15 1
  24   14   16 2
  25   15   17 1
  26   15   36 1
  27   16   37 1
  28   17   18 1
  29   17   19 1
  30   17   38 1
  31   18   39 1
  32   18   40 1
  33   18   41 1
  34   19   20 1
  35   19   42 1
  36   19   43 1
  37   20   44 1
  38   21   22 1
  39   22   23 ar
  40   22   26 ar
  41   23   24 ar
  42   23   27 1
  43   24   25 ar
  44   24   29 1
  45   25   28 ar
  46   25   45 1
  47   26   28 ar
  48   26   46 1
  49   28   47 1

#	End of record

