#	Name: ASD01000129
#	Creating user name:	WinNT
#	Creation time:	15. 06. 2019 18:54

#	Modifying user name:	WinNT
#	Modification time:	15. 06. 2019 18:54

#	Program:	/corina/corina34_cracker 3.40 0067  02.08.2006

@<TRIPOS>MOLECULE
ASD01000129
  31   32    0    0    0
SMALL
NO_CHARGES


@<TRIPOS>ATOM
   1 C1            -0.0028     1.3797     0.0026 C.ar    
   2 C2             0.0064    -0.0120    -0.0181 C.ar    
   3 C3             1.2120    -0.6995    -0.0664 C.ar    
   4 C4             2.4034    -0.0049    -0.0934 C.ar    
   5 C5             2.3979     1.3885    -0.0728 C.ar    
   6 C6             1.1872     2.0784    -0.0247 C.ar    
   7 C7             3.6785     2.1368    -0.1013 C.ar    
   8 C8             3.6749     3.5302    -0.0807 C.ar    
   9 C9             4.8693     4.2212    -0.1070 C.ar    
  10 C10            6.0685     3.5333    -0.1541 C.ar    
  11 C11            6.0780     2.1502    -0.1747 C.ar    
  12 C12            4.8898     1.4488    -0.1430 C.ar    
  13 N13           -1.2010    -0.7194     0.0102 N.am    
  14 C14           -1.2348    -1.9756     0.4975 C.2     
  15 N15           -2.4100    -2.6277     0.5988 N.am    
  16 O16           -0.2051    -2.5205     0.8457 O.2     
  17 C17            7.3694     4.2934    -0.1836 C.3     
  18 F18           -1.1769     2.0468     0.0439 F       
  19 F19            7.8129     4.5097     1.1255 F       
  20 F20            8.3270     3.5519    -0.8839 F       
  21 F21            7.1759     5.5243    -0.8198 F       
  22 H22            1.2167    -1.7794    -0.0824 H       
  23 H23            3.3403    -0.5408    -0.1302 H       
  24 H24            1.1806     3.1583    -0.0089 H       
  25 H25            2.7393     4.0684    -0.0446 H       
  26 H26            4.8678     5.3011    -0.0910 H       
  27 H27            7.0171     1.6181    -0.2115 H       
  28 H28            4.8985     0.3689    -0.1547 H       
  29 H29           -2.0134    -0.3057    -0.3209 H       
  30 H30           -3.2314    -2.1929     0.3210 H       
  31 H31           -2.4343    -3.5317     0.9496 H       
@<TRIPOS>BOND
   1    1    2 ar
   2    1    6 ar
   3    1   18 1
   4    2    3 ar
   5    2   13 1
   6    3    4 ar
   7    3   22 1
   8    4    5 ar
   9    4   23 1
  10    5    6 ar
  11    5    7 1
  12    6   24 1
  13    7    8 ar
  14    7   12 ar
  15    8    9 ar
  16    8   25 1
  17    9   10 ar
  18    9   26 1
  19   10   11 ar
  20   10   17 1
  21   11   12 ar
  22   11   27 1
  23   12   28 1
  24   13   14 am
  25   13   29 1
  26   14   15 am
  27   14   16 2
  28   15   30 1
  29   15   31 1
  30   17   19 1
  31   17   20 1
  32   17   21 1

#	End of record

