#	Name: ASD02408101
#	Creating user name:	WinNT
#	Creation time:	15. 06. 2019 20:21

#	Modifying user name:	WinNT
#	Modification time:	15. 06. 2019 20:21

#	Program:	/corina/corina34_cracker 3.40 0067  02.08.2006

@<TRIPOS>MOLECULE
ASD02408101
  41   43    0    0    0
SMALL
NO_CHARGES


@<TRIPOS>ATOM
   1 C1             0.5282     0.6445    -0.2428 C.ar    
   2 C2             0.7961    -0.6877    -0.4933 C.ar    
   3 C3             1.6570     1.6406    -0.1748 C.3     
   4 C4             1.7478     2.3867    -1.4809 C.2     
   5 N5             2.6989     3.3295    -1.6274 N.am    
   6 N6             0.9058     2.0943    -2.4345 N.2     
   7 C7             0.9397     2.7241    -3.6159 C.2     
   8 C8             1.9033     3.7225    -3.8349 C.2     
   9 C9             2.8093     4.0167    -2.7837 C.2     
  10 N10            0.0425     2.3970    -4.6028 N.pl3   
  11 C11            0.4688     2.3204    -6.0067 C.3     
  12 O12            3.6652     4.8738    -2.9202 O.2     
  13 C13           -0.2393    -1.6018    -0.5562 C.ar    
  14 C14           -1.5436    -1.1843    -0.3685 C.ar    
  15 C15           -1.8140     0.1477    -0.1173 C.ar    
  16 C16           -0.7786     1.0648    -0.0598 C.ar    
  17 F17           -1.0416     2.3669     0.1861 F       
  18 C18            0.0692     0.9529    -6.5695 C.3     
  19 C19           -1.4306     0.7360    -6.3554 C.3     
  20 C20           -1.7411     0.7512    -4.8569 C.3     
  21 C21           -1.3607     2.1110    -4.2740 C.3     
  22 C22            1.9723     4.4189    -5.0842 C.1     
  23 N23            2.0271     4.9714    -6.0753 N.1     
  24 C24           -2.1818     1.8117    -7.0227 C.1     
  25 N25           -2.7615     2.6419    -7.5377 N.1     
  26 H26            1.8148    -1.0150    -0.6405 H       
  27 H27            1.4704     2.3464     0.6347 H       
  28 H28            2.5942     1.1156     0.0097 H       
  29 H29            3.3086     3.5160    -0.8964 H       
  30 H30           -0.0192     3.1084    -6.5803 H       
  31 H31            1.5508     2.4384    -6.0670 H       
  32 H32           -0.0290    -2.6428    -0.7525 H       
  33 H33           -2.3517    -1.8990    -0.4186 H       
  34 H34           -2.8332     0.4738     0.0290 H       
  35 H35            0.2931     0.9187    -7.6357 H       
  36 H36            0.6270     0.1705    -6.0549 H       
  37 H37           -1.7223    -0.2259    -6.7770 H       
  38 H38           -2.8056     0.5734    -4.7041 H       
  39 H39           -1.1662    -0.0293    -4.3584 H       
  40 H40           -1.4872     2.0929    -3.1915 H       
  41 H41           -1.9964     2.8842    -4.7054 H       
@<TRIPOS>BOND
   1    1    2 ar
   2    1    3 1
   3    1   16 ar
   4    2   13 ar
   5    2   26 1
   6    3    4 1
   7    3   27 1
   8    3   28 1
   9    4    5 1
  10    4    6 2
  11    5    9 am
  12    5   29 1
  13    6    7 1
  14    7    8 2
  15    7   10 1
  16    8    9 1
  17    8   22 1
  18    9   12 2
  19   10   11 1
  20   10   21 1
  21   11   18 1
  22   11   30 1
  23   11   31 1
  24   13   14 ar
  25   13   32 1
  26   14   15 ar
  27   14   33 1
  28   15   16 ar
  29   15   34 1
  30   16   17 1
  31   18   19 1
  32   18   35 1
  33   18   36 1
  34   19   20 1
  35   19   24 1
  36   19   37 1
  37   20   21 1
  38   20   38 1
  39   20   39 1
  40   21   40 1
  41   21   41 1
  42   22   23 3
  43   24   25 3

#	End of record

