#	Name: ASD01028835
#	Creating user name:	WinNT
#	Creation time:	15. 06. 2019 18:58

#	Modifying user name:	WinNT
#	Modification time:	15. 06. 2019 18:58

#	Program:	/corina/corina34_cracker 3.40 0067  02.08.2006

@<TRIPOS>MOLECULE
ASD01028835
  45   49    0    0    0
SMALL
NO_CHARGES


@<TRIPOS>ATOM
   1 C1            -0.0157     1.3062     0.0092 C.ar    
   2 N2             0.0021    -0.0041     0.0020 N.ar    
   3 C3             1.1642     2.0563     0.0020 C.ar    
   4 C4             2.3769     1.4184    -0.0130 C.ar    
   5 C5             2.3864     0.0120    -0.0206 C.ar    
   6 C6             1.1522    -0.6848    -0.0126 C.ar    
   7 C7             3.5911    -0.7103    -0.0358 C.ar    
   8 C8             3.5596    -2.0712    -0.0428 C.ar    
   9 C9             2.3472    -2.7584    -0.0350 C.ar    
  10 C10            1.1616    -2.0909    -0.0202 C.ar    
  11 C11            4.8528    -2.8448    -0.0597 C.3     
  12 C12            5.2978    -3.1103     1.3554 C.2     
  13 N13            4.9734    -4.1864     2.1043 N.pl3   
  14 C14            5.5973    -4.0078     3.3155 C.2     
  15 N15            6.2529    -2.8608     3.2432 N.2     
  16 N16            6.0737    -2.3417     2.0788 N.2     
  17 N17            4.1957    -5.3239     1.8781 N.2     
  18 C18            4.0531    -6.2318     2.8184 C.2     
  19 C19            4.6811    -6.0770     4.0727 C.2     
  20 C20            5.4445    -4.9807     4.3217 C.2     
  21 C21            3.2220    -7.4328     2.5579 C.2     
  22 O22            1.1084     3.4142     0.0093 O.3     
  23 C23           -0.1903     4.0102     0.0244 C.3     
  24 C24            2.5566    -7.7181     1.4006 C.2     
  25 N25            1.9255    -8.8958     1.5731 N.pl3   
  26 N26            2.2024    -9.3563     2.8659 N.2     
  27 C27            2.9806    -8.4898     3.4578 C.2     
  28 C28            1.0921    -9.5770     0.5792 C.3     
  29 H29           -0.9658     1.8197     0.0165 H       
  30 H30            3.2995     1.9799    -0.0191 H       
  31 H31            4.5369    -0.1889    -0.0424 H       
  32 H32            2.3487    -3.8383    -0.0412 H       
  33 H33            0.2311    -2.6390    -0.0147 H       
  34 H34            4.7026    -3.7923    -0.5772 H       
  35 H35            5.6164    -2.2648    -0.5780 H       
  36 H36            4.5548    -6.8308     4.8357 H       
  37 H37            5.9274    -4.8569     5.2798 H       
  38 H38           -0.0919     5.0957     0.0289 H       
  39 H39           -0.7431     3.6991    -0.8620 H       
  40 H40           -0.7265     3.6902     0.9178 H       
  41 H41            2.5390    -7.1098     0.5084 H       
  42 H42            3.3661    -8.5669     4.4637 H       
  43 H43            1.7131   -10.2414    -0.0217 H       
  44 H44            0.3232   -10.1590     1.0873 H       
  45 H45            0.6200    -8.8373    -0.0674 H       
@<TRIPOS>BOND
   1    1    2 ar
   2    1    3 ar
   3    1   29 1
   4    2    6 ar
   5    3    4 ar
   6    3   22 1
   7    4    5 ar
   8    4   30 1
   9    5    6 ar
  10    5    7 ar
  11    6   10 ar
  12    7    8 ar
  13    7   31 1
  14    8    9 ar
  15    8   11 1
  16    9   10 ar
  17    9   32 1
  18   10   33 1
  19   11   12 1
  20   11   34 1
  21   11   35 1
  22   12   13 1
  23   12   16 2
  24   13   14 1
  25   13   17 1
  26   14   15 2
  27   14   20 1
  28   15   16 1
  29   17   18 2
  30   18   19 1
  31   18   21 1
  32   19   20 2
  33   19   36 1
  34   20   37 1
  35   21   24 2
  36   21   27 1
  37   22   23 1
  38   23   38 1
  39   23   39 1
  40   23   40 1
  41   24   25 1
  42   24   41 1
  43   25   26 1
  44   25   28 1
  45   26   27 2
  46   27   42 1
  47   28   43 1
  48   28   44 1
  49   28   45 1

#	End of record

