#	Name: ASD01040038
#	Creating user name:	WinNT
#	Creation time:	15. 06. 2019 18:58

#	Modifying user name:	WinNT
#	Modification time:	15. 06. 2019 18:58

#	Program:	/corina/corina34_cracker 3.40 0067  02.08.2006

@<TRIPOS>MOLECULE
ASD01040038
  44   46    0    0    0
SMALL
NO_CHARGES


@<TRIPOS>ATOM
   1 O1            -0.0163     1.3545     0.0095 O.3     
   2 C2             0.0021    -0.0041     0.0020 C.ar    
   3 C3             0.0230    -0.7032     1.2014 C.ar    
   4 C4             0.0417    -2.0820     1.1972 C.ar    
   5 C5             0.0396    -2.7740    -0.0132 C.ar    
   6 C6             0.0593    -4.2565    -0.0214 C.2     
   7 C7             1.2377    -4.9852     0.5064 C.ar    
   8 C8             1.1126    -5.7887     1.6390 C.ar    
   9 C9             2.2103    -6.4655     2.1271 C.ar    
  10 C10            3.4393    -6.3475     1.4919 C.ar    
  11 O11            4.5191    -7.0157     1.9752 O.3     
  12 C12            3.5671    -5.5486     0.3635 C.ar    
  13 C13            2.4720    -4.8730    -0.1323 C.ar    
  14 C14           -0.9871    -4.9371    -0.5052 C.2     
  15 C15           -2.1966    -4.2132    -1.0542 C.3     
  16 C16           -2.5061    -4.7693    -2.4480 C.3     
  17 C17           -2.6645    -6.2884    -2.3654 C.3     
  18 C18           -3.0643    -6.8335    -3.7380 C.3     
  19 F19           -4.2768    -6.2583    -4.1331 F       
  20 C20           -1.3432    -6.9248    -1.9309 C.3     
  21 C21           -0.9875    -6.4497    -0.5229 C.3     
  22 C22            0.0186    -2.0690    -1.2160 C.ar    
  23 C23           -0.0057    -0.6904    -1.2049 C.ar    
  24 H24            0.8616     1.7598     0.0033 H       
  25 H25            0.0249    -0.1666     2.1387 H       
  26 H26            0.0583    -2.6252     2.1305 H       
  27 H27            0.1570    -5.8806     2.1337 H       
  28 H28            2.1142    -7.0877     3.0045 H       
  29 H29            4.6332    -7.9007     1.6026 H       
  30 H30            4.5243    -5.4592    -0.1285 H       
  31 H31            2.5711    -4.2550    -1.0124 H       
  32 H32           -3.0506    -4.3766    -0.3969 H       
  33 H33           -1.9841    -3.1465    -1.1245 H       
  34 H34           -3.4307    -4.3270    -2.8188 H       
  35 H35           -1.6886    -4.5255    -3.1265 H       
  36 H36           -3.4394    -6.5329    -1.6388 H       
  37 H37           -2.2912    -6.5873    -4.4659 H       
  38 H38           -3.1775    -7.9160    -3.6802 H       
  39 H39           -1.4437    -8.0101    -1.9351 H       
  40 H40           -0.5533    -6.6301    -2.6217 H       
  41 H41            0.0015    -6.8193    -0.2520 H       
  42 H42           -1.7276    -6.8239     0.1845 H       
  43 H43            0.0170    -2.6022    -2.1552 H       
  44 H44           -0.0265    -0.1437    -2.1362 H       
@<TRIPOS>BOND
   1    1    2 1
   2    1   24 1
   3    2    3 ar
   4    2   23 ar
   5    3    4 ar
   6    3   25 1
   7    4   26 1
   8    4    5 ar
   9    5    6 1
  10    5   22 ar
  11    6    7 1
  12    6   14 2
  13    7   13 ar
  14    7    8 ar
  15    8    9 ar
  16    8   27 1
  17    9   10 ar
  18    9   28 1
  19   10   12 ar
  20   10   11 1
  21   11   29 1
  22   12   30 1
  23   12   13 ar
  24   13   31 1
  25   14   21 1
  26   14   15 1
  27   15   16 1
  28   15   32 1
  29   15   33 1
  30   16   17 1
  31   16   34 1
  32   16   35 1
  33   17   18 1
  34   17   36 1
  35   17   20 1
  36   18   37 1
  37   18   38 1
  38   18   19 1
  39   20   39 1
  40   20   40 1
  41   20   21 1
  42   21   41 1
  43   21   42 1
  44   22   43 1
  45   22   23 ar
  46   23   44 1

#	End of record

