#	Name: ASD01238017
#	Creating user name:	WinNT
#	Creation time:	15. 06. 2019 19:15

#	Modifying user name:	WinNT
#	Modification time:	15. 06. 2019 19:15

#	Program:	/corina/corina34_cracker 3.40 0067  02.08.2006

@<TRIPOS>MOLECULE
ASD01238017
  56   57    0    0    0
SMALL
NO_CHARGES


@<TRIPOS>ATOM
   1 C1            -0.0168     1.3892     0.0097 C.ar    
   2 C2             0.0021    -0.0041     0.0020 C.ar    
   3 C3             1.2080    -0.6752    -0.0131 C.ar    
   4 C4             2.3963     0.0326    -0.0202 C.ar    
   5 C5             2.3834     1.4158    -0.0122 C.ar    
   6 C6             1.1833     2.0972     0.0020 C.ar    
   7 C7            -1.3103     2.1163     0.0198 C.ar    
   8 C8            -1.3292     3.5095     0.0274 C.ar    
   9 C9            -2.5352     4.1807     0.0368 C.ar    
  10 C10           -3.7236     3.4729     0.0391 C.ar    
  11 C11           -3.7106     2.0897     0.0320 C.ar    
  12 C12           -2.5105     1.4084     0.0158 C.ar    
  13 C13            4.5193    -0.3337     1.2077 C.3     
  14 C14            3.7099    -0.7058    -0.0362 C.3     
  15 C15            4.4964    -0.3202    -1.2906 C.3     
  16 C16           -5.8416     3.8393    -1.1973 C.3     
  17 C17           -5.0372     4.2113     0.0499 C.3     
  18 C18           -5.8288     3.8257     1.3011 C.3     
  19 C19            6.2921    -0.8994     3.9319 C.3     
  20 S20            6.9806    -0.7077     2.2646 S.o2    
  21 O21            7.2080     0.6645     1.9737 O.2     
  22 O22            7.9851    -1.6837     2.0247 O.2     
  23 N23            5.7419    -1.1395     1.2539 N.am    
  24 C24           -8.5426     3.0446    -2.9169 C.3     
  25 S25           -7.9389     4.7345    -2.6515 S.o2    
  26 O26           -6.9800     5.0825    -3.6408 O.2     
  27 O27           -9.0168     5.6056    -2.3376 O.2     
  28 N28           -7.0640     4.6451    -1.2483 N.am    
  29 H29           -0.9252    -0.5577     0.0083 H       
  30 H30            1.2238    -1.7551    -0.0191 H       
  31 H31            3.3142     1.9635    -0.0174 H       
  32 H32            1.1743     3.1771     0.0076 H       
  33 H33           -0.4019     4.0632     0.0264 H       
  34 H34           -2.5510     5.2606     0.0428 H       
  35 H35           -4.6414     1.5420     0.0342 H       
  36 H36           -2.5015     0.3284     0.0051 H       
  37 H37            4.7822     0.7234     1.1673 H       
  38 H38            3.9235    -0.5260     2.0999 H       
  39 H39            3.5230    -1.7796    -0.0403 H       
  40 H40            4.6833     0.7536    -1.2866 H       
  41 H41            5.4466    -0.8543    -1.3022 H       
  42 H42            3.9198    -0.5853    -2.1768 H       
  43 H43           -5.2422     4.0317    -2.0871 H       
  44 H44           -6.1047     2.7822    -1.1580 H       
  45 H45           -4.8503     5.2851     0.0547 H       
  46 H46           -5.2557     4.0907     2.1896 H       
  47 H47           -6.7789     4.3598     1.3089 H       
  48 H48           -6.0156     2.7519     1.2963 H       
  49 H49            5.4275    -0.2454     4.0453 H       
  50 H50            5.9866    -1.9348     4.0820 H       
  51 H51            7.0485    -0.6330     4.6702 H       
  52 H52            5.8259    -1.9261     0.6924 H       
  53 H53           -7.6945     2.3660    -3.0086 H       
  54 H54           -9.1600     2.7423    -2.0710 H       
  55 H55           -9.1360     3.0101    -3.8305 H       
  56 H56           -7.3609     5.1264    -0.4602 H       
@<TRIPOS>BOND
   1    1    2 ar
   2    1    6 ar
   3    1    7 1
   4    2    3 ar
   5    2   29 1
   6    3    4 ar
   7    3   30 1
   8    4    5 ar
   9    4   14 1
  10    5    6 ar
  11    5   31 1
  12    6   32 1
  13    7    8 ar
  14    7   12 ar
  15    8    9 ar
  16    8   33 1
  17    9   10 ar
  18    9   34 1
  19   10   11 ar
  20   10   17 1
  21   11   12 ar
  22   11   35 1
  23   12   36 1
  24   13   14 1
  25   13   23 1
  26   13   37 1
  27   13   38 1
  28   14   15 1
  29   14   39 1
  30   15   40 1
  31   15   41 1
  32   15   42 1
  33   16   17 1
  34   16   28 1
  35   16   43 1
  36   16   44 1
  37   17   18 1
  38   17   45 1
  39   18   46 1
  40   18   47 1
  41   18   48 1
  42   19   20 1
  43   19   49 1
  44   19   50 1
  45   19   51 1
  46   20   21 2
  47   20   22 2
  48   20   23 am
  49   23   52 1
  50   24   25 1
  51   24   53 1
  52   24   54 1
  53   24   55 1
  54   25   26 2
  55   25   27 2
  56   25   28 am
  57   28   56 1

#	End of record

