#	Name: ASD03720014
#	Creating user name:	WinNT
#	Creation time:	15. 06. 2019 20:43

#	Modifying user name:	WinNT
#	Modification time:	15. 06. 2019 20:43

#	Program:	/corina/corina34_cracker 3.40 0067  02.08.2006

@<TRIPOS>MOLECULE
ASD03720014
  67   70    0    0    0
SMALL
NO_CHARGES


@<TRIPOS>ATOM
   1 C1             0.1194     1.4524     0.4803 C.3     
   2 O2             0.9461    -2.0647    -0.5505 O.3     
   3 C3             0.1713    -0.0735     0.5794 C.3     
   4 C4             0.8983    -0.6395    -0.6424 C.3     
   5 C5             2.3229    -0.0832    -0.6898 C.3     
   6 O6             0.8101     7.3411    -3.2961 O.2     
   7 O7            -0.9195     8.6512    -3.7150 O.3     
   8 C8             2.2711     1.4423    -0.7897 C.3     
   9 C9             3.6947     2.0000    -0.8413 C.3     
  10 C10            3.6425     3.5258    -0.9424 C.3     
  11 C11            2.9197     4.0927     0.2803 C.3     
  12 C12            1.4886     3.5349     0.3247 C.3     
  13 C13            1.5435     2.0104     0.4309 C.3     
  14 C14            0.6993     4.1122     1.4949 C.3     
  15 C15            0.6994     5.6500     1.4661 C.3     
  16 C16            2.1464     6.1019     1.4871 C.3     
  17 C17            2.8092     5.6022     0.1749 C.3     
  18 C18            4.1336     6.3730     0.1831 C.3     
  19 C19            3.7077     7.7897     0.6566 C.3     
  20 C20            2.3905     7.6071     1.4513 C.3     
  21 C21            2.8617     5.4904     2.6934 C.3     
  22 C22            2.2929     1.6114     1.7037 C.3     
  23 C23            1.2375     8.3143     0.7361 C.3     
  24 C24            1.4490     9.8282     0.8011 C.3     
  25 C25            1.1942     7.8677    -0.7266 C.3     
  26 C26            0.0514     8.5872    -1.4459 C.3     
  27 C27            0.0088     8.1473    -2.8866 C.2     
  28 H28           -0.4149     1.7396    -0.4253 H       
  29 H29           -0.3986     1.8554     1.3506 H       
  30 H30            0.0764    -2.4860    -0.5156 H       
  31 H31            0.7052    -0.3608     1.4852 H       
  32 H32           -0.8434    -0.4701     0.6144 H       
  33 H33            0.3651    -0.3513    -1.5483 H       
  34 H34            2.8554    -0.3702     0.2169 H       
  35 H35            2.8418    -0.4869    -1.5592 H       
  36 H36           -0.9073     8.3389    -4.6301 H       
  37 H37            1.7361     1.7287    -1.6951 H       
  38 H38            4.2298     1.7141     0.0643 H       
  39 H39            4.2118     1.5957    -1.7115 H       
  40 H40            4.6570     3.9224    -0.9812 H       
  41 H41            3.1056     3.8119    -1.8469 H       
  42 H42            3.4537     3.8099     1.1875 H       
  43 H43            0.9765     3.8052    -0.5987 H       
  44 H44           -0.3290     3.7545     1.4426 H       
  45 H45            1.1468     3.7728     2.4290 H       
  46 H46            0.2137     6.0039     0.5568 H       
  47 H47            0.1774     6.0373     2.3411 H       
  48 H48            2.2023     5.8782    -0.6875 H       
  49 H49            4.8358     5.9259     0.8868 H       
  50 H50            4.5625     6.4137    -0.8182 H       
  51 H51            4.4770     8.2160     1.3005 H       
  52 H52            3.5387     8.4368    -0.2041 H       
  53 H53            2.5031     7.9957     2.4635 H       
  54 H54            2.7485     4.4065     2.6719 H       
  55 H55            3.9207     5.7458     2.6558 H       
  56 H56            2.4257     5.8831     3.6120 H       
  57 H57            2.3312     0.5246     1.7773 H       
  58 H58            3.3072     2.0091     1.6680 H       
  59 H59            1.7743     2.0163     2.5727 H       
  60 H60            0.2963     8.0577     1.2224 H       
  61 H61            1.4004    10.1576     1.8390 H       
  62 H62            2.4259    10.0768     0.3864 H       
  63 H63            0.6713    10.3288     0.2242 H       
  64 H64            2.1397     8.1138    -1.2098 H       
  65 H65            1.0319     6.7909    -0.7731 H       
  66 H66           -0.8941     8.3411    -0.9627 H       
  67 H67            0.2137     9.6641    -1.3994 H       
@<TRIPOS>BOND
   1    1    3 1
   2    1   13 1
   3    1   28 1
   4    1   29 1
   5    2    4 1
   6    2   30 1
   7    3    4 1
   8    3   31 1
   9    3   32 1
  10    4    5 1
  11    4   33 1
  12    5    8 1
  13    5   34 1
  14    5   35 1
  15    6   27 2
  16    7   27 1
  17    7   36 1
  18    8    9 1
  19    8   13 1
  20    8   37 1
  21    9   10 1
  22    9   38 1
  23    9   39 1
  24   10   11 1
  25   10   40 1
  26   10   41 1
  27   11   12 1
  28   11   17 1
  29   11   42 1
  30   12   13 1
  31   12   14 1
  32   12   43 1
  33   13   22 1
  34   14   15 1
  35   14   44 1
  36   14   45 1
  37   15   16 1
  38   15   46 1
  39   15   47 1
  40   16   17 1
  41   16   20 1
  42   16   21 1
  43   17   18 1
  44   17   48 1
  45   18   19 1
  46   18   49 1
  47   18   50 1
  48   19   20 1
  49   19   51 1
  50   19   52 1
  51   20   23 1
  52   20   53 1
  53   21   54 1
  54   21   55 1
  55   21   56 1
  56   22   57 1
  57   22   58 1
  58   22   59 1
  59   23   24 1
  60   23   25 1
  61   23   60 1
  62   24   61 1
  63   24   62 1
  64   24   63 1
  65   25   26 1
  66   25   64 1
  67   25   65 1
  68   26   27 1
  69   26   66 1
  70   26   67 1

#	End of record

