#	Name: ASD01870429
#	Creating user name:	WinNT
#	Creation time:	15. 06. 2019 19:39

#	Modifying user name:	WinNT
#	Modification time:	15. 06. 2019 19:39

#	Program:	/corina/corina34_cracker 3.40 0067  02.08.2006

@<TRIPOS>MOLECULE
ASD01870429
  54   58    0    0    0
SMALL
NO_CHARGES


@<TRIPOS>ATOM
   1 N1            -0.0162     1.3436     0.0094 N.am    
   2 C2             0.0021    -0.0041     0.0020 C.2     
   3 C3            -1.2926    -0.7753     0.0102 C.3     
   4 O4             1.0605    -0.5961    -0.0113 O.2     
   5 C5            -1.1041    -2.3031     0.0002 C.3     
   6 N6            -2.1920    -2.3432     0.9966 N.am    
   7 C7            -1.8956    -0.9592     1.4147 C.3     
   8 S8            -3.3003    -3.4832     1.4596 S.o2    
   9 C9            -2.5707    -4.4221     2.7598 C.ar    
  10 C10           -1.8298    -5.5514     2.4645 C.ar    
  11 O11           -4.3876    -2.7742     2.0378 O.2     
  12 O12           -3.4480    -4.3695     0.3587 O.2     
  13 C13           -2.7349    -4.0260     4.0731 C.ar    
  14 C14           -2.1598    -4.7661     5.0968 C.ar    
  15 C15           -1.4211    -5.9029     4.7975 C.ar    
  16 C16           -1.2560    -6.2911     3.4825 C.ar    
  17 C17            1.2357     2.1156     0.0016 C.3     
  18 C18            1.1612     3.1524    -1.1243 C.3     
  19 N19           -0.0610     3.9524    -0.9688 N.3     
  20 C20           -1.2637     3.1194    -1.1013 C.3     
  21 C21           -1.2886     2.0812     0.0194 C.3     
  22 C22           -0.0840     5.0090    -1.8742 C.ar    
  23 C23           -1.1551     5.9018    -1.9050 C.ar    
  24 C24            0.9662     5.2062    -2.7706 C.ar    
  25 C25            0.9051     6.2651    -3.6518 C.ar    
  26 N26           -0.1292     7.0852    -3.6534 N.ar    
  27 C27           -1.1396     6.9356    -2.8174 C.ar    
  28 N28           -2.3244    -4.3661     6.4311 N.pl3   
  29 C29           -1.8340    -4.9706     7.5349 C.2     
  30 N30           -2.2238    -4.2693     8.5671 N.2     
  31 N31           -2.9271    -3.2627     8.1912 N.2     
  32 N32           -3.0300    -3.2465     6.9059 N.2     
  33 H33           -2.0058    -0.4162    -0.7318 H       
  34 H34           -1.3611    -2.7713    -0.9500 H       
  35 H35           -0.1396    -2.6293     0.3895 H       
  36 H36           -1.1636    -0.8907     2.2195 H       
  37 H37           -2.7845    -0.3544     1.5939 H       
  38 H38           -1.6991    -5.8567     1.4368 H       
  39 H39           -3.3098    -3.1411     4.3029 H       
  40 H40           -0.9725    -6.4807     5.5920 H       
  41 H41           -0.6818    -7.1755     3.2491 H       
  42 H42            1.3592     2.6225     0.9586 H       
  43 H43            2.0778     1.4458    -0.1725 H       
  44 H44            2.0323     3.8057    -1.0753 H       
  45 H45            1.1421     2.6426    -2.0875 H       
  46 H46           -2.1512     3.7488    -1.0356 H       
  47 H47           -1.2490     2.6100    -2.0648 H       
  48 H48           -2.1158     1.3897    -0.1405 H       
  49 H49           -1.4069     2.5823     0.9801 H       
  50 H50           -1.9852     5.7849    -1.2240 H       
  51 H51            1.8156     4.5391    -2.7743 H       
  52 H52            1.7139     6.4257    -4.3492 H       
  53 H53           -1.9670     7.6289    -2.8516 H       
  54 H54           -1.2318    -5.8667     7.5601 H       
@<TRIPOS>BOND
   1    1    2 am
   2    1   17 1
   3    1   21 1
   4    2    3 1
   5    2    4 2
   6    3    5 1
   7    3    7 1
   8    3   33 1
   9    5    6 1
  10    5   34 1
  11    5   35 1
  12    6    7 1
  13    6    8 am
  14    7   36 1
  15    7   37 1
  16    8    9 1
  17    8   11 2
  18    8   12 2
  19    9   13 ar
  20    9   10 ar
  21   10   16 ar
  22   10   38 1
  23   13   14 ar
  24   13   39 1
  25   14   15 ar
  26   14   28 1
  27   15   16 ar
  28   15   40 1
  29   16   41 1
  30   17   18 1
  31   17   42 1
  32   17   43 1
  33   18   19 1
  34   18   44 1
  35   18   45 1
  36   19   20 1
  37   19   22 1
  38   20   21 1
  39   20   46 1
  40   20   47 1
  41   21   48 1
  42   21   49 1
  43   22   23 ar
  44   22   24 ar
  45   23   27 ar
  46   23   50 1
  47   24   25 ar
  48   24   51 1
  49   25   26 ar
  50   25   52 1
  51   26   27 ar
  52   27   53 1
  53   28   29 1
  54   28   32 1
  55   29   30 2
  56   29   54 1
  57   30   31 1
  58   31   32 2

#	End of record

