#	Name: ASD02500892
#	Creating user name:	WinNT
#	Creation time:	15. 06. 2019 20:23

#	Modifying user name:	WinNT
#	Modification time:	15. 06. 2019 20:23

#	Program:	/corina/corina34_cracker 3.40 0067  02.08.2006

@<TRIPOS>MOLECULE
ASD02500892
  38   40    0    0    0
SMALL
NO_CHARGES


@<TRIPOS>ATOM
   1 C1            -0.0167     1.3784     0.0096 C.ar    
   2 C2             0.0021    -0.0041     0.0020 C.ar    
   3 C3             1.2068    -0.6798    -0.0127 C.ar    
   4 C4             2.3995     0.0306    -0.0203 C.ar    
   5 C5             2.3774     1.4191    -0.0131 C.ar    
   6 C6             1.1698     2.0889     0.0021 C.ar    
   7 N7             3.6231    -0.6519    -0.0348 N.am    
   8 C8             4.2222    -0.9862     1.1140 C.2     
   9 S9             5.7237    -1.8245     0.6857 S.3     
  10 C10            5.4698    -1.6830    -1.0652 C.2     
  11 C11            4.1920    -0.9755    -1.1841 C.2     
  12 C12            6.2763    -2.1335    -2.0694 C.2     
  13 O13            3.6945    -0.7000    -2.2606 O.2     
  14 S14            3.6482    -0.6655     2.6948 S.2     
  15 C15            7.4766    -2.8041    -1.7617 C.2     
  16 C16            8.2770    -3.2512    -2.7582 C.2     
  17 C17            9.5294    -3.9510    -2.4372 C.ar    
  18 C18           10.3594    -4.4145    -3.4641 C.ar    
  19 C19           11.5322    -5.0698    -3.1545 C.ar    
  20 C20           11.8895    -5.2697    -1.8322 C.ar    
  21 C21           11.0739    -4.8147    -0.8105 C.ar    
  22 C22            9.9009    -4.1521    -1.1030 C.ar    
  23 C23            1.2264    -2.1867    -0.0200 C.3     
  24 H24           -0.9598     1.9045     0.0170 H       
  25 H25           -0.9261    -0.5562     0.0080 H       
  26 H26            3.3036     1.9745    -0.0187 H       
  27 H27            1.1520     3.1688     0.0077 H       
  28 H28            5.9947    -1.9759    -3.1000 H       
  29 H29            7.7583    -2.9617    -0.7311 H       
  30 H30            7.9953    -3.0936    -3.7889 H       
  31 H31           10.0819    -4.2596    -4.4963 H       
  32 H32           12.1737    -5.4285    -3.9459 H       
  33 H33           12.8095    -5.7838    -1.5964 H       
  34 H34           11.3594    -4.9753     0.2186 H       
  35 H35            9.2657    -3.7974    -0.3048 H       
  36 H36            1.2213    -2.5451    -1.0493 H       
  37 H37            2.1259    -2.5408     0.4836 H       
  38 H38            0.3462    -2.5640     0.5005 H       
@<TRIPOS>BOND
   1    1    2 ar
   2    1    6 ar
   3    1   24 1
   4    2    3 ar
   5    2   25 1
   6    3    4 ar
   7    3   23 1
   8    4    5 ar
   9    4    7 1
  10    5    6 ar
  11    5   26 1
  12    6   27 1
  13    7    8 am
  14    7   11 am
  15    8    9 1
  16    8   14 2
  17    9   10 1
  18   10   11 1
  19   10   12 2
  20   11   13 2
  21   12   15 1
  22   12   28 1
  23   15   16 2
  24   15   29 1
  25   16   17 1
  26   16   30 1
  27   17   18 ar
  28   17   22 ar
  29   18   19 ar
  30   18   31 1
  31   19   20 ar
  32   19   32 1
  33   20   21 ar
  34   20   33 1
  35   21   22 ar
  36   21   34 1
  37   22   35 1
  38   23   36 1
  39   23   37 1
  40   23   38 1

#	End of record

