#	Name: ASD01810950
#	Creating user name:	WinNT
#	Creation time:	15. 06. 2019 19:25

#	Modifying user name:	WinNT
#	Modification time:	15. 06. 2019 19:25

#	Program:	/corina/corina34_cracker 3.40 0067  02.08.2006

@<TRIPOS>MOLECULE
ASD01810950
  61   65    0    0    0
SMALL
NO_CHARGES


@<TRIPOS>ATOM
   1 C1            -0.0898     1.1867    -0.4126 C.ar    
   2 C2            -0.0498    -0.0471     0.2411 C.ar    
   3 C3             1.2463    -0.6207     0.6626 C.2     
   4 N4             1.6033    -1.8535     0.2513 N.am    
   5 O5             1.9897     0.0197     1.3801 O.2     
   6 C6             2.9159    -2.4102     0.6063 C.3     
   7 C7            -1.2338    -0.7358     0.4954 C.ar    
   8 C8            -2.4506    -0.1882     0.0953 C.ar    
   9 C9            -2.4764     1.0458    -0.5571 C.ar    
  10 C10           -1.2995     1.7260    -0.8016 C.ar    
  11 C11           -3.7126    -0.9128     0.3609 C.2     
  12 C12            3.6226    -2.8625    -0.6754 C.3     
  13 C13            2.7154    -3.8297    -1.4392 C.3     
  14 C14            1.4189    -3.1159    -1.8287 C.3     
  15 C15            0.6850    -2.6687    -0.5554 C.3     
  16 C16            3.4211    -4.3033    -2.6837 C.ar    
  17 C17            3.6695    -5.6525    -2.8633 C.ar    
  18 C18            4.3147    -6.0929    -4.0003 C.ar    
  19 C19            4.7173    -5.1736    -4.9711 C.ar    
  20 C20            4.4634    -3.8134    -4.7833 C.ar    
  21 C21            3.8127    -3.3874    -3.6441 C.ar    
  22 C22           -3.7919     1.6396    -0.9906 C.3     
  23 N23           -4.9266    -0.4597     0.1211 N.2     
  24 C24            5.3879    -5.6236    -6.1536 C.1     
  25 N25            5.9199    -5.9805    -7.0917 N.1     
  26 C26           -5.8145    -1.3802     0.4833 C.2     
  27 C27           -5.1433    -2.4527     0.9707 C.2     
  28 N28           -3.8172    -2.1690     0.8913 N.pl3   
  29 C29           -7.3215    -1.3308     0.4021 C.3     
  30 C30           -7.8459    -2.7650     0.5629 C.3     
  31 O31           -7.2124    -3.3865     1.6843 O.3     
  32 C32           -5.8258    -3.6944     1.4834 C.3     
  33 C33            1.1898     1.9335    -0.6882 C.3     
  34 H34            3.5142    -1.6468     1.1036 H       
  35 H35            2.7831    -3.2638     1.2711 H       
  36 H36           -1.2084    -1.6903     1.0002 H       
  37 H37           -1.3251     2.6804    -1.3064 H       
  38 H38            3.8358    -1.9943    -1.2990 H       
  39 H39            4.5554    -3.3645    -0.4187 H       
  40 H40            2.4824    -4.6859    -0.8061 H       
  41 H41            1.6528    -2.2454    -2.4415 H       
  42 H42            0.7832    -3.7983    -2.3929 H       
  43 H43            0.3709    -3.5447     0.0121 H       
  44 H44           -0.1875    -2.0742    -0.8262 H       
  45 H45            3.3578    -6.3625    -2.1115 H       
  46 H46            4.5082    -7.1464    -4.1391 H       
  47 H47            4.7725    -3.0970    -5.5301 H       
  48 H48            3.6157    -2.3357    -3.4975 H       
  49 H49           -4.2589     2.1445    -0.1449 H       
  50 H50           -3.6198     2.3576    -1.7925 H       
  51 H51           -4.4485     0.8463    -1.3478 H       
  52 H52           -3.0854    -2.7446     1.1635 H       
  53 H53           -7.7140    -0.7022     1.2014 H       
  54 H54           -7.6263    -0.9324    -0.5656 H       
  55 H55           -8.9239    -2.7413     0.7225 H       
  56 H56           -7.6259    -3.3350    -0.3397 H       
  57 H57           -5.7288    -4.4969     0.7523 H       
  58 H58           -5.3754    -3.9991     2.4280 H       
  59 H59            1.5736     1.6476    -1.6675 H       
  60 H60            0.9951     3.0058    -0.6731 H       
  61 H61            1.9262     1.6871     0.0767 H       
@<TRIPOS>BOND
   1    1    2 ar
   2    1   33 1
   3    1   10 ar
   4    2    3 1
   5    2    7 ar
   6    3    4 am
   7    3    5 2
   8    4    6 1
   9    4   15 1
  10    6   12 1
  11    6   34 1
  12    6   35 1
  13    7    8 ar
  14    7   36 1
  15    8    9 ar
  16    8   11 1
  17    9   10 ar
  18    9   22 1
  19   10   37 1
  20   11   23 2
  21   11   28 1
  22   12   13 1
  23   12   38 1
  24   12   39 1
  25   13   14 1
  26   13   16 1
  27   13   40 1
  28   14   15 1
  29   14   41 1
  30   14   42 1
  31   15   43 1
  32   15   44 1
  33   16   17 ar
  34   16   21 ar
  35   17   18 ar
  36   17   45 1
  37   18   19 ar
  38   18   46 1
  39   19   20 ar
  40   19   24 1
  41   20   21 ar
  42   20   47 1
  43   21   48 1
  44   22   49 1
  45   22   50 1
  46   22   51 1
  47   23   26 1
  48   24   25 3
  49   26   27 2
  50   26   29 1
  51   27   28 1
  52   27   32 1
  53   28   52 1
  54   29   30 1
  55   29   53 1
  56   29   54 1
  57   30   31 1
  58   30   55 1
  59   30   56 1
  60   31   32 1
  61   32   57 1
  62   32   58 1
  63   33   59 1
  64   33   60 1
  65   33   61 1

#	End of record

