#	Name: ASD03090603
#	Creating user name:	WinNT
#	Creation time:	15. 06. 2019 20:29

#	Modifying user name:	WinNT
#	Modification time:	15. 06. 2019 20:29

#	Program:	/corina/corina34_cracker 3.40 0067  02.08.2006

@<TRIPOS>MOLECULE
ASD03090603
  36   37    0    0    0
SMALL
NO_CHARGES


@<TRIPOS>ATOM
   1 N1            -0.0085     1.3369    -0.4205 N.am    
   2 C2            -0.1072     0.1853     0.2727 C.2     
   3 O3             0.8226    -0.1929     0.9588 O.2     
   4 N4            -1.2366    -0.5472     0.2054 N.am    
   5 O5            -2.1511    -3.5031     1.6684 O.3     
   6 N6            -2.3634    -2.5500     0.9553 N.2     
   7 C7            -1.3387    -1.7389     0.9227 C.2     
   8 C8            -0.3500    -2.3153     1.7639 C.2     
   9 C9            -0.9287    -3.4505     2.2170 C.2     
  10 C10           -0.3189    -4.4594     3.1558 C.3     
  11 C11            1.1142     2.1594    -0.2565 C.ar    
  12 C12            0.9600     3.5370    -0.1751 C.ar    
  13 C13            2.0666     4.3468    -0.0136 C.ar    
  14 C14            3.3323     3.7845     0.0669 C.ar    
  15 C15            3.4871     2.4086    -0.0148 C.ar    
  16 C16            2.3803     1.5970    -0.1697 C.ar    
  17 N17           -0.3902     4.1372    -0.2619 N.pl3   
  18 O18           -0.5180     5.3483    -0.2857 O.2     
  19 O19           -1.3736     3.4201    -0.3095 O.2     
  20 O20            4.4217     4.5826     0.2255 O.3     
  21 C21            5.6940     3.9364     0.3008 C.3     
  22 C22            6.7908     4.9884     0.4778 C.3     
  23 H23           -0.7127     1.5944    -1.0359 H       
  24 H24           -1.9784    -0.2455    -0.3420 H       
  25 H25            0.6354    -1.9351     1.9893 H       
  26 H26           -1.0302    -5.2658     3.3345 H       
  27 H27            0.5887    -4.8674     2.7111 H       
  28 H28           -0.0742    -3.9747     4.1010 H       
  29 H29            1.9468     5.4183     0.0498 H       
  30 H30            4.4727     1.9716     0.0472 H       
  31 H31            2.5004     0.5252    -0.2281 H       
  32 H32            5.7050     3.2536     1.1503 H       
  33 H33            5.8722     3.3768    -0.6175 H       
  34 H34            6.7798     5.6712    -0.3718 H       
  35 H35            6.6126     5.5480     1.3960 H       
  36 H36            7.7612     4.4954     0.5352 H       
@<TRIPOS>BOND
   1    1    2 am
   2    1   11 1
   3    1   23 1
   4    2    3 2
   5    2    4 am
   6    4    7 1
   7    4   24 1
   8    5    6 1
   9    5    9 1
  10    6    7 2
  11    7    8 1
  12    8    9 2
  13    8   25 1
  14    9   10 1
  15   10   26 1
  16   10   27 1
  17   10   28 1
  18   11   12 ar
  19   11   16 ar
  20   12   13 ar
  21   12   17 1
  22   13   14 ar
  23   13   29 1
  24   14   15 ar
  25   14   20 1
  26   15   16 ar
  27   15   30 1
  28   16   31 1
  29   17   18 2
  30   17   19 2
  31   20   21 1
  32   21   22 1
  33   21   32 1
  34   21   33 1
  35   22   34 1
  36   22   35 1
  37   22   36 1

#	End of record

