#	Name: ASD01410406
#	Creating user name:	WinNT
#	Creation time:	15. 06. 2019 19:17

#	Modifying user name:	WinNT
#	Modification time:	15. 06. 2019 19:17

#	Program:	/corina/corina34_cracker 3.40 0067  02.08.2006

@<TRIPOS>MOLECULE
ASD01410406
  37   39    0    0    0
SMALL
NO_CHARGES


@<TRIPOS>ATOM
   1 S1            -0.0133     1.7563    -0.1195 S.3     
   2 C2            -0.0013     0.0016     0.1287 C.2     
   3 N3             1.2718    -0.3549     0.3324 N.am    
   4 C4             2.2184     0.5688     0.3166 C.2     
   5 C5             1.7424     1.9379     0.0666 C.2     
   6 S6            -1.3606    -1.0391     0.1117 S.2     
   7 O7             3.3928     0.3061     0.4955 O.2     
   8 N8             1.6003    -1.6975     0.5612 N.am    
   9 S9             1.9649    -2.6896    -0.7135 S.o2    
  10 O10            2.3957    -3.9220    -0.1524 O.2     
  11 O11            0.8791    -2.5879    -1.6245 O.2     
  12 C12            3.3652    -1.9977    -1.5291 C.ar    
  13 C13            4.6409    -2.3653    -1.1439 C.ar    
  14 C14            5.7394    -1.8225    -1.7838 C.ar    
  15 C15            5.5623    -0.9124    -2.8091 C.ar    
  16 C16            4.2866    -0.5455    -3.1948 C.ar    
  17 C17            3.1879    -1.0916    -2.5579 C.ar    
  18 C18            2.4763     3.0769    -0.0054 C.2     
  19 C19           -0.1485     5.7265     0.2306 C.ar    
  20 C20            0.5378     6.8305    -0.2849 C.ar    
  21 C21            0.4755     4.5152     0.3208 C.ar    
  22 C22            1.8037     4.3789    -0.1028 C.ar    
  23 C23            2.4900     5.4855    -0.6190 C.ar    
  24 C24            1.8637     6.6957    -0.7086 C.ar    
  25 C25           -0.1178     8.1001    -0.3795 C.1     
  26 N26           -0.6379     9.1073    -0.4545 N.1     
  27 H27            1.6142    -2.0459     1.4664 H       
  28 H28            4.7793    -3.0764    -0.3429 H       
  29 H29            6.7361    -2.1091    -1.4824 H       
  30 H30            6.4206    -0.4877    -3.3085 H       
  31 H31            4.1482     0.1658    -3.9956 H       
  32 H32            2.1912    -0.8077    -2.8618 H       
  33 H33            3.5550     3.0260     0.0088 H       
  34 H34           -1.1710     5.8330     0.5616 H       
  35 H35           -0.0547     3.6628     0.7192 H       
  36 H36            3.5142     5.3818    -0.9457 H       
  37 H37            2.3927     7.5491    -1.1066 H       
@<TRIPOS>BOND
   1    1    2 1
   2    1    5 1
   3    2    3 am
   4    2    6 2
   5    3    4 am
   6    3    8 1
   7    4    5 1
   8    4    7 2
   9    5   18 2
  10    8    9 am
  11    8   27 1
  12    9   10 2
  13    9   11 2
  14    9   12 1
  15   12   13 ar
  16   12   17 ar
  17   13   14 ar
  18   13   28 1
  19   14   15 ar
  20   14   29 1
  21   15   16 ar
  22   15   30 1
  23   16   17 ar
  24   16   31 1
  25   17   32 1
  26   18   22 1
  27   18   33 1
  28   19   20 ar
  29   19   21 ar
  30   19   34 1
  31   20   24 ar
  32   20   25 1
  33   21   22 ar
  34   21   35 1
  35   22   23 ar
  36   23   24 ar
  37   23   36 1
  38   24   37 1
  39   25   26 3

#	End of record

