#	Name: ASD06190006
#	Creating user name:	WinNT
#	Creation time:	15. 06. 2019 21:05

#	Modifying user name:	WinNT
#	Modification time:	15. 06. 2019 21:05

#	Program:	/corina/corina34_cracker 3.40 0067  02.08.2006

@<TRIPOS>MOLECULE
ASD06190006
  39   41    0    0    0
SMALL
NO_CHARGES


@<TRIPOS>ATOM
   1 C1            -0.0160     1.3829    -0.0085 C.ar    
   2 C2            -1.0022     1.6903    -0.9360 C.ar    
   3 C3            -2.1874     0.9788    -0.9440 C.ar    
   4 C4            -2.3909    -0.0389    -0.0276 C.ar    
   5 C5            -1.4091    -0.3466     0.8975 C.ar    
   6 C6            -0.2209     0.3571     0.9054 C.ar    
   7 N7             1.1847     2.1014     0.0020 N.am    
   8 C8             1.1664     3.4457    -0.0923 C.2     
   9 N9             2.3156     4.1435     0.0016 N.am    
  10 N10            3.5293     3.4714     0.1973 N.am    
  11 C11            4.6785     4.1693     0.2913 C.2     
  12 S12           -0.3166     4.2669    -0.3315 S.2     
  13 N13            4.6602     5.5136     0.1969 N.am    
  14 S14            6.1615     3.3480     0.5304 S.2     
  15 Cl15          -3.4215     1.3620    -2.1032 Cl      
  16 Br16          -4.0136    -1.0097    -0.0399 Br      
  17 C17            5.9094     6.2721     0.2990 C.3     
  18 C18            5.7799     7.6447    -0.4351 C.3     
  19 C19            4.5036     8.2617     0.1500 C.2     
  20 C20            4.7400     8.5988     1.4020 C.2     
  21 C21            6.1901     8.2297     1.7378 C.3     
  22 C22            6.1871     6.6681     1.7699 C.3     
  23 C23            6.8618     8.4836     0.3388 C.3     
  24 H24           -0.8437     2.4847    -1.6504 H       
  25 H25           -1.5703    -1.1409     1.6112 H       
  26 H26            0.5449     0.1163     1.6279 H       
  27 H27            2.0302     1.6319     0.0772 H       
  28 H28            2.3025     5.1110    -0.0663 H       
  29 H29            3.5424     2.5039     0.2652 H       
  30 H30            3.8199     5.9789     0.0614 H       
  31 H31            6.7404     5.6964    -0.1087 H       
  32 H32            5.8500     7.6191    -1.5225 H       
  33 H33            3.5696     8.3973    -0.3750 H       
  34 H34            4.0325     9.0574     2.0769 H       
  35 H35            6.6286     8.7295     2.6016 H       
  36 H36            5.3951     6.2998     2.4219 H       
  37 H37            7.1571     6.2895     2.0920 H       
  38 H38            7.8579     8.0466     0.2683 H       
  39 H39            6.8540     9.5365     0.0568 H       
@<TRIPOS>BOND
   1    1    2 ar
   2    1    7 1
   3    1    6 ar
   4    2    3 ar
   5    2   24 1
   6    3    4 ar
   7    3   15 1
   8    4    5 ar
   9    4   16 1
  10    5    6 ar
  11    5   25 1
  12    6   26 1
  13    7    8 am
  14    7   27 1
  15    8    9 am
  16    8   12 2
  17    9   10 1
  18    9   28 1
  19   10   11 am
  20   10   29 1
  21   11   13 am
  22   11   14 2
  23   13   17 1
  24   13   30 1
  25   17   18 1
  26   17   22 1
  27   17   31 1
  28   18   19 1
  29   18   23 1
  30   18   32 1
  31   19   20 2
  32   19   33 1
  33   20   21 1
  34   20   34 1
  35   21   22 1
  36   21   23 1
  37   21   35 1
  38   22   36 1
  39   22   37 1
  40   23   38 1
  41   23   39 1

#	End of record

