#	Name: ASD01912207
#	Creating user name:	WinNT
#	Creation time:	15. 06. 2019 19:59

#	Modifying user name:	WinNT
#	Modification time:	15. 06. 2019 19:59

#	Program:	/corina/corina34_cracker 3.40 0067  02.08.2006

@<TRIPOS>MOLECULE
ASD01912207
  47   49    0    0    0
SMALL
NO_CHARGES


@<TRIPOS>ATOM
   1 C1            -0.0784     1.2342     0.1559 C.ar    
   2 C2             0.1518     0.2478    -0.7964 C.ar    
   3 C3             1.4311    -0.2593    -0.9487 C.ar    
   4 C4             2.4420     0.2383    -0.1409 C.ar    
   5 C5             2.1440     1.2229     0.7900 C.ar    
   6 N6             0.9106     1.6874     0.9116 N.ar    
   7 N7            -0.9578    -0.2546    -1.6373 N.pl3   
   8 O8            -0.7715    -1.1880    -2.3973 O.2     
   9 O9            -2.0571     0.2653    -1.5692 O.2     
  10 N10           -1.3579     1.7540     0.3126 N.3     
  11 C11           -1.3086     3.1873     0.6274 C.3     
  12 C12           -2.7229     3.7740     0.5524 C.3     
  13 C13           -3.6262     2.9494     1.4453 C.2     
  14 C14           -3.5785     1.4428     1.2991 C.3     
  15 C15           -2.1098     1.0043     1.3267 C.3     
  16 C16           -4.4355     3.5299     2.3302 C.2     
  17 C17           -5.2798     2.7270     3.1627 C.1     
  18 C18           -5.9721     2.0687     3.8452 C.1     
  19 C19           -6.8164     1.2658     4.6777 C.ar    
  20 C20           -7.6637     1.8800     5.6046 C.ar    
  21 C21           -8.4725     1.0901     6.4008 C.ar    
  22 C22           -8.4111    -0.2888     6.2478 C.ar    
  23 C23           -7.5502    -0.8313     5.3113 C.ar    
  24 N24           -6.7929    -0.0587     4.5600 N.ar    
  25 C25           -7.4820    -2.3274     5.1436 C.3     
  26 O26            3.1275     1.7147     1.5846 O.3     
  27 C27            2.7580     2.7270     2.5231 C.3     
  28 H28            1.6370    -1.0261    -1.6808 H       
  29 H29            3.4504    -0.1368    -0.2349 H       
  30 H30           -0.9106     3.3252     1.6328 H       
  31 H31           -0.6656     3.6954    -0.0912 H       
  32 H32           -2.7106     4.8082     0.8965 H       
  33 H33           -3.0842     3.7322    -0.4751 H       
  34 H34           -4.1170     0.9763     2.1240 H       
  35 H35           -4.0316     1.1509     0.3517 H       
  36 H36           -2.0449    -0.0625     1.1126 H       
  37 H37           -1.6893     1.2037     2.3124 H       
  38 H38           -4.4548     4.6060     2.4196 H       
  39 H39           -7.6860     2.9557     5.6977 H       
  40 H40           -9.1372     1.5358     7.1260 H       
  41 H41           -9.0303    -0.9322     6.8553 H       
  42 H42           -8.2081    -2.6425     4.3942 H       
  43 H43           -6.4804    -2.6116     4.8212 H       
  44 H44           -7.7083    -2.8102     6.0943 H       
  45 H45            2.3549     3.5876     1.9894 H       
  46 H46            2.0017     2.3339     3.2025 H       
  47 H47            3.6356     3.0315     3.0934 H       
@<TRIPOS>BOND
   1    1    2 ar
   2    1    6 ar
   3    1   10 1
   4    2    3 ar
   5    2    7 1
   6    3    4 ar
   7    3   28 1
   8    4    5 ar
   9    4   29 1
  10    5    6 ar
  11    5   26 1
  12    7    8 2
  13    7    9 2
  14   10   11 1
  15   10   15 1
  16   11   12 1
  17   11   30 1
  18   11   31 1
  19   12   13 1
  20   12   32 1
  21   12   33 1
  22   13   14 1
  23   13   16 2
  24   14   15 1
  25   14   34 1
  26   14   35 1
  27   15   36 1
  28   15   37 1
  29   16   17 1
  30   16   38 1
  31   17   18 3
  32   18   19 1
  33   19   20 ar
  34   19   24 ar
  35   20   21 ar
  36   20   39 1
  37   21   22 ar
  38   21   40 1
  39   22   23 ar
  40   22   41 1
  41   23   24 ar
  42   23   25 1
  43   25   42 1
  44   25   43 1
  45   25   44 1
  46   26   27 1
  47   27   45 1
  48   27   46 1
  49   27   47 1

#	End of record

