#	Name: ASD06350029
#	Creating user name:	WinNT
#	Creation time:	15. 06. 2019 21:06

#	Modifying user name:	WinNT
#	Modification time:	15. 06. 2019 21:06

#	Program:	/corina/corina34_cracker 3.40 0067  02.08.2006

@<TRIPOS>MOLECULE
ASD06350029
  51   54    0    0    0
SMALL
NO_CHARGES


@<TRIPOS>ATOM
   1 C1            -1.1448    -2.1782     0.4725 C.3     
   2 O2            -0.9292    -3.3385    -0.3332 O.3     
   3 C3            -0.1057    -3.2007    -1.4059 C.ar    
   4 C4             0.1468    -4.2877    -2.2301 C.ar    
   5 C5             0.9831    -4.1496    -3.3204 C.ar    
   6 C6             1.5716    -2.9225    -3.5929 C.ar    
   7 C7             1.3183    -1.8321    -2.7669 C.ar    
   8 C8             0.4771    -1.9714    -1.6790 C.ar    
   9 F9             1.8903    -0.6368    -3.0305 F       
  10 N10            2.4208    -2.7820    -4.6991 N.am    
  11 C11            1.9007    -2.4212    -5.8977 C.2     
  12 C12            2.6908    -2.2746    -6.9922 C.2     
  13 C13            4.0644    -2.4959    -6.8985 C.2     
  14 C14            4.6061    -2.8672    -5.6689 C.2     
  15 C15            3.7412    -3.0023    -4.5529 C.2     
  16 O16            4.1905    -3.3255    -3.4668 O.2     
  17 C17            6.0498    -3.1098    -5.5301 C.2     
  18 O18            6.7666    -3.0942    -6.5131 O.2     
  19 N19            6.5790    -3.3495    -4.3140 N.am    
  20 C20            7.9223    -3.7268    -4.1970 C.ar    
  21 C21            8.6470    -3.3727    -3.0670 C.ar    
  22 C22            9.9725    -3.7447    -2.9513 C.ar    
  23 C23           10.5802    -4.4715    -3.9634 C.ar    
  24 C24            9.8564    -4.8264    -5.0954 C.ar    
  25 C25            8.5284    -4.4602    -5.2089 C.ar    
  26 F26           10.4490    -5.5339    -6.0821 F       
  27 O27           11.8853    -4.8369    -3.8486 O.3     
  28 C28           12.8141    -4.0907    -4.4947 C.ar    
  29 N29           12.4641    -2.9677    -5.1160 N.ar    
  30 C30           13.3600    -2.2354    -5.7463 C.ar    
  31 N31           14.6315    -2.5769    -5.7909 N.ar    
  32 C32           15.0615    -3.6867    -5.1939 C.ar    
  33 C33           14.1464    -4.4849    -4.5127 C.ar    
  34 N34           16.4010    -4.0395    -5.2457 N.pl3   
  35 H35           -0.1927    -1.8343     0.8765 H       
  36 H36           -1.5870    -1.3899    -0.1368 H       
  37 H37           -1.8193    -2.4253     1.2923 H       
  38 H38           -0.3108    -5.2429    -2.0187 H       
  39 H39            1.1795    -4.9967    -3.9609 H       
  40 H40            0.2794    -1.1255    -1.0372 H       
  41 H41            0.8382    -2.2476    -5.9838 H       
  42 H42            2.2545    -1.9863    -7.9371 H       
  43 H43            4.6986    -2.3817    -7.7652 H       
  44 H44            6.0293    -3.2607    -3.5197 H       
  45 H45            8.1746    -2.8059    -2.2784 H       
  46 H46           10.5356    -3.4689    -2.0719 H       
  47 H47            7.9652    -4.7356    -6.0883 H       
  48 H48           13.0426    -1.3293    -6.2410 H       
  49 H49           14.4626    -5.3913    -4.0178 H       
  50 H50           17.0329    -3.4763    -5.7194 H       
  51 H51           16.7064    -4.8495    -4.8082 H       
@<TRIPOS>BOND
   1    1    2 1
   2    1   35 1
   3    1   36 1
   4    1   37 1
   5    2    3 1
   6    3    4 ar
   7    3    8 ar
   8    4    5 ar
   9    4   38 1
  10    5    6 ar
  11    5   39 1
  12    6    7 ar
  13    6   10 1
  14    7    8 ar
  15    7    9 1
  16    8   40 1
  17   10   11 1
  18   10   15 am
  19   11   12 2
  20   11   41 1
  21   12   13 1
  22   12   42 1
  23   13   14 2
  24   13   43 1
  25   14   15 1
  26   14   17 1
  27   15   16 2
  28   17   18 2
  29   17   19 am
  30   19   20 1
  31   19   44 1
  32   20   21 ar
  33   20   25 ar
  34   21   22 ar
  35   21   45 1
  36   22   23 ar
  37   22   46 1
  38   23   24 ar
  39   23   27 1
  40   24   25 ar
  41   24   26 1
  42   25   47 1
  43   27   28 1
  44   28   29 ar
  45   28   33 ar
  46   29   30 ar
  47   30   31 ar
  48   30   48 1
  49   31   32 ar
  50   32   33 ar
  51   32   34 1
  52   33   49 1
  53   34   50 1
  54   34   51 1

#	End of record

