#	Name: ASD05430324
#	Creating user name:	WinNT
#	Creation time:	15. 06. 2019 21:00

#	Modifying user name:	WinNT
#	Modification time:	15. 06. 2019 21:00

#	Program:	/corina/corina34_cracker 3.40 0067  02.08.2006

@<TRIPOS>MOLECULE
ASD05430324
  58   62    0    0    0
SMALL
NO_CHARGES


@<TRIPOS>ATOM
   1 N1            -0.1694     1.7555     0.1052 N.pl3   
   2 C2             1.2029     2.2928     0.0029 C.3     
   3 O3             1.0110     3.6474    -0.4205 O.3     
   4 N4            -0.3793     3.9054    -0.3235 N.2     
   5 C5            -1.0308     2.8219    -0.0172 C.2     
   6 C6             1.9154     2.2314     1.3294 C.ar    
   7 C7             3.1355     2.8616     1.4879 C.ar    
   8 C8             1.3456     1.5495     2.3885 C.ar    
   9 C9             1.9976     1.4932     3.6057 C.ar    
  10 C10            3.2222     2.1197     3.7641 C.ar    
  11 C11            3.7896     2.8063     2.7041 C.ar    
  12 C12           -2.4849     2.7469     0.1715 C.2     
  13 C13           -3.2399     3.8517     0.0284 C.2     
  14 C14           -4.6979     3.7765     0.2176 C.ar    
  15 C15           -5.3000     2.5580     0.5460 C.ar    
  16 C16           -5.4834     4.9248     0.0750 C.ar    
  17 C17           -6.8512     4.8486     0.2542 C.ar    
  18 C18           -7.4456     3.6286     0.5765 C.ar    
  19 C19           -6.6651     2.4895     0.7232 C.ar    
  20 N20           -8.8332     3.5533     0.7582 N.pl3   
  21 C21           -9.5900     4.3646     1.5418 C.2     
  22 N22          -10.8355     3.9843     1.4532 N.2     
  23 C23          -10.9213     2.9335     0.6240 C.2     
  24 C24           -9.6838     2.6508     0.1741 C.2     
  25 O25           -7.6178     5.9630     0.1168 O.3     
  26 C26           -6.9426     7.1783    -0.2137 C.3     
  27 C27          -12.1849     2.2000     0.2547 C.3     
  28 C28           -0.4698     0.3313     0.2710 C.3     
  29 C29            0.3289    -0.4350    -0.7946 C.3     
  30 C30            1.7962    -0.0081    -0.7426 C.3     
  31 C31            1.9321     1.4815    -1.0723 C.3     
  32 O32            3.3142     1.8440    -1.0909 O.3     
  33 F33            3.8605     2.0653     4.9536 F       
  34 H34            3.5779     3.3972     0.6610 H       
  35 H35            0.3904     1.0610     2.2647 H       
  36 H36            1.5519     0.9611     4.4331 H       
  37 H37            4.7449     3.2950     2.8264 H       
  38 H38           -2.9486     1.8051     0.4251 H       
  39 H39           -2.7762     4.7936    -0.2252 H       
  40 H40           -4.6954     1.6704     0.6604 H       
  41 H41           -5.0218     5.8688    -0.1742 H       
  42 H42           -7.1293     1.5469     0.9728 H       
  43 H43           -9.2228     5.1867     2.1383 H       
  44 H44           -9.4127     1.8603    -0.5100 H       
  45 H45           -6.4255     7.0593    -1.1659 H       
  46 H46           -7.6687     7.9873    -0.2932 H       
  47 H47           -6.2185     7.4152     0.5658 H       
  48 H48          -12.6276     2.6607    -0.6284 H       
  49 H49          -11.9505     1.1570     0.0417 H       
  50 H50          -12.8905     2.2517     1.0839 H       
  51 H51           -0.1697     0.0029     1.2661 H       
  52 H52           -1.5367     0.1588     0.1293 H       
  53 H53            0.2554    -1.5055    -0.6031 H       
  54 H54           -0.0784    -0.2147    -1.7814 H       
  55 H55            2.1902    -0.1934     0.2566 H       
  56 H56            2.3669    -0.5908    -1.4656 H       
  57 H57            1.4864     1.6823    -2.0466 H       
  58 H58            3.8391     1.3595    -1.7427 H       
@<TRIPOS>BOND
   1    1   28 1
   2    1    2 1
   3    1    5 1
   4    2    3 1
   5    2    6 1
   6    2   31 1
   7    3    4 1
   8    4    5 2
   9    5   12 1
  10    6    7 ar
  11    6    8 ar
  12    7   11 ar
  13    7   34 1
  14    8    9 ar
  15    8   35 1
  16    9   10 ar
  17    9   36 1
  18   10   11 ar
  19   10   33 1
  20   11   37 1
  21   12   13 2
  22   12   38 1
  23   13   14 1
  24   13   39 1
  25   14   15 ar
  26   14   16 ar
  27   15   19 ar
  28   15   40 1
  29   16   17 ar
  30   16   41 1
  31   17   18 ar
  32   17   25 1
  33   18   19 ar
  34   18   20 1
  35   19   42 1
  36   20   21 1
  37   20   24 1
  38   21   22 2
  39   21   43 1
  40   22   23 1
  41   23   24 2
  42   23   27 1
  43   24   44 1
  44   25   26 1
  45   26   45 1
  46   26   46 1
  47   26   47 1
  48   27   48 1
  49   27   49 1
  50   27   50 1
  51   28   29 1
  52   28   51 1
  53   28   52 1
  54   29   30 1
  55   29   53 1
  56   29   54 1
  57   30   31 1
  58   30   55 1
  59   30   56 1
  60   31   32 1
  61   31   57 1
  62   32   58 1

#	End of record

