#	Name: ASD01800014
#	Creating user name:	WinNT
#	Creation time:	15. 06. 2019 19:23

#	Modifying user name:	WinNT
#	Modification time:	15. 06. 2019 19:23

#	Program:	/corina/corina34_cracker 3.40 0067  02.08.2006

@<TRIPOS>MOLECULE
ASD01800014
  34   36    0    0    0
SMALL
NO_CHARGES


@<TRIPOS>ATOM
   1 C1            -0.0168     1.3875     0.0097 C.ar    
   2 C2             0.0021    -0.0041     0.0020 C.ar    
   3 C3             1.2181    -0.6830    -0.0132 C.ar    
   4 C4             2.4104     0.0272    -0.0208 C.ar    
   5 C5             2.3939     1.4148    -0.0132 C.ar    
   6 C6             1.1801     2.0978     0.0021 C.ar    
   7 C7             1.1630     3.5818     0.0097 C.ar    
   8 C8            -1.2727    -0.7641     0.0106 C.ar    
   9 C9             2.3600     4.2948     0.0016 C.ar    
  10 C10            2.3384     5.6748     0.0083 C.ar    
  11 C11            1.1312     6.3500     0.0230 C.ar    
  12 C12           -0.0601     5.6471     0.0315 C.ar    
  13 C13           -0.0501     4.2670     0.0191 C.ar    
  14 C14           -1.2561    -2.1572     0.0030 C.ar    
  15 C15           -2.4445    -2.8590     0.0115 C.ar    
  16 C16           -3.6505    -2.1818     0.0276 C.ar    
  17 C17           -3.6727    -0.7988     0.0348 C.ar    
  18 C18           -2.4902    -0.0870     0.0322 C.ar    
  19 N19            3.6291    -0.6558    -0.0357 N.pl3   
  20 H20           -0.9589     1.9156     0.0170 H       
  21 H21            1.2332    -1.7629    -0.0188 H       
  22 H22            3.3229     1.9656    -0.0188 H       
  23 H23            3.3031     3.7686    -0.0095 H       
  24 H24            3.2656     6.2285     0.0024 H       
  25 H25            1.1188     7.4299     0.0282 H       
  26 H26           -0.9998     6.1793     0.0433 H       
  27 H27           -0.9808     3.7192     0.0258 H       
  28 H28           -0.3150    -2.6870    -0.0100 H       
  29 H29           -2.4329    -3.9390     0.0052 H       
  30 H30           -4.5781    -2.7348     0.0342 H       
  31 H31           -4.6171    -0.2749     0.0470 H       
  32 H32           -2.5087     0.9928     0.0378 H       
  33 H33            3.6414    -1.6257    -0.0407 H       
  34 H34            4.4628    -0.1601    -0.0409 H       
@<TRIPOS>BOND
   1    1    2 ar
   2    1    6 ar
   3    1   20 1
   4    2    3 ar
   5    2    8 1
   6    3    4 ar
   7    3   21 1
   8    4    5 ar
   9    4   19 1
  10    5    6 ar
  11    5   22 1
  12    6    7 1
  13    7    9 ar
  14    7   13 ar
  15    8   14 ar
  16    8   18 ar
  17    9   10 ar
  18    9   23 1
  19   10   11 ar
  20   10   24 1
  21   11   12 ar
  22   11   25 1
  23   12   13 ar
  24   12   26 1
  25   13   27 1
  26   14   15 ar
  27   14   28 1
  28   15   16 ar
  29   15   29 1
  30   16   17 ar
  31   16   30 1
  32   17   18 ar
  33   17   31 1
  34   18   32 1
  35   19   33 1
  36   19   34 1

#	End of record

