#	Name: ASD03730953
#	Creating user name:	WinNT
#	Creation time:	15. 06. 2019 20:45

#	Modifying user name:	WinNT
#	Modification time:	15. 06. 2019 20:45

#	Program:	/corina/corina34_cracker 3.40 0067  02.08.2006

@<TRIPOS>MOLECULE
ASD03730953
  55   61    0    0    0
SMALL
NO_CHARGES


@<TRIPOS>ATOM
   1 C1            -0.0180     1.4737     0.0101 C.2     
   2 C2             0.0021    -0.0041     0.0020 C.ar    
   3 C3             1.2188    -0.6887    -0.0133 C.ar    
   4 C4             1.2303    -2.0680    -0.0208 C.ar    
   5 C5             0.0396    -2.7730    -0.0138 C.ar    
   6 C6            -1.1694    -2.1009     0.0009 C.ar    
   7 C7            -1.1952    -0.7214     0.0154 C.ar    
   8 O8             1.0264     2.0958     0.0035 O.2     
   9 N9            -1.1942     2.1317     0.0193 N.am    
  10 S10           -2.6276     4.4806     0.0389 S.3     
  11 C11           -1.2130     3.5205     0.0269 C.2     
  12 N12           -0.1605     4.2775     0.0265 N.2     
  13 C13           -0.3626     5.5817     0.0349 C.2     
  14 C14           -1.6469     5.9442     0.0428 C.2     
  15 C15            2.5426    -2.8087    -0.0373 C.3     
  16 O16           -0.8964    -3.3246     6.2553 O.3     
  17 C17           -0.9374    -3.5796     7.6718 C.3     
  18 O18           -0.0323    -4.6855     7.8468 O.3     
  19 C19            0.8656    -4.5890     6.8224 C.ar    
  20 C20            0.3332    -3.7529     5.8437 C.ar    
  21 C21            2.1149    -5.1555     6.6434 C.ar    
  22 C22            2.8470    -4.8977     5.4883 C.ar    
  23 C23            2.3011    -4.0675     4.5141 C.ar    
  24 C24            1.0584    -3.4963     4.6923 C.ar    
  25 O25            4.0871    -5.3351     5.1264 O.3     
  26 C26            3.3028    -4.0067     3.3920 C.3     
  27 C27            4.2526    -5.1710     3.7047 C.3     
  28 N28            2.9810    -3.0562     1.3384 N.am    
  29 C29            2.6568    -4.1575     2.0449 C.2     
  30 C30            4.0251    -2.6932     3.3421 C.ar    
  31 C31            4.7969    -1.9968     4.2452 C.ar    
  32 C32            5.3426    -0.7751     3.8935 C.ar    
  33 C33            5.1106    -0.2548     2.6332 C.ar    
  34 C34            4.3374    -0.9480     1.7254 C.ar    
  35 C35            3.7844    -2.1788     2.0707 C.ar    
  36 O36            1.9770    -5.0879     1.6665 O.2     
  37 H37            2.1487    -0.1396    -0.0195 H       
  38 H38            0.0543    -3.8529    -0.0201 H       
  39 H39           -2.0951    -2.6571     0.0057 H       
  40 H40           -2.1397    -0.1979     0.0321 H       
  41 H41           -2.0276     1.6353     0.0206 H       
  42 H42            0.4459     6.2977     0.0359 H       
  43 H43           -2.0200     6.9577     0.0503 H       
  44 H44            2.4166    -3.7596    -0.5551 H       
  45 H45            3.2916    -2.2095    -0.5551 H       
  46 H46           -0.5902    -2.7088     8.2279 H       
  47 H47           -1.9450    -3.8566     7.9820 H       
  48 H48            2.5248    -5.8021     7.4052 H       
  49 H49            0.6497    -2.8475     3.9317 H       
  50 H50            5.2820    -4.9065     3.4628 H       
  51 H51            3.9482    -6.0725     3.1730 H       
  52 H52            4.9767    -2.4049     5.2288 H       
  53 H53            5.9487    -0.2291     4.6013 H       
  54 H54            5.5365     0.6989     2.3587 H       
  55 H55            4.1602    -0.5350     0.7434 H       
@<TRIPOS>BOND
   1    1    2 1
   2    1    8 2
   3    1    9 am
   4    2    3 ar
   5    2    7 ar
   6    3    4 ar
   7    3   37 1
   8    4    5 ar
   9    4   15 1
  10    5    6 ar
  11    5   38 1
  12    6    7 ar
  13    6   39 1
  14    7   40 1
  15    9   11 1
  16    9   41 1
  17   10   11 1
  18   10   14 1
  19   11   12 2
  20   12   13 1
  21   13   14 2
  22   13   42 1
  23   14   43 1
  24   15   28 1
  25   15   44 1
  26   15   45 1
  27   16   17 1
  28   16   20 1
  29   17   18 1
  30   17   46 1
  31   17   47 1
  32   18   19 1
  33   19   20 ar
  34   19   21 ar
  35   20   24 ar
  36   21   22 ar
  37   21   48 1
  38   22   23 ar
  39   22   25 1
  40   23   24 ar
  41   23   26 1
  42   24   49 1
  43   25   27 1
  44   26   27 1
  45   26   29 1
  46   26   30 1
  47   27   50 1
  48   27   51 1
  49   28   29 am
  50   28   35 1
  51   29   36 2
  52   30   31 ar
  53   30   35 ar
  54   31   32 ar
  55   31   52 1
  56   32   33 ar
  57   32   53 1
  58   33   34 ar
  59   33   54 1
  60   34   35 ar
  61   34   55 1

#	End of record

