#	Name: ASD01140335
#	Creating user name:	WinNT
#	Creation time:	15. 06. 2019 19:00

#	Modifying user name:	WinNT
#	Modification time:	15. 06. 2019 19:00

#	Program:	/corina/corina34_cracker 3.40 0067  02.08.2006

@<TRIPOS>MOLECULE
ASD01140335
  49   53    0    0    0
SMALL
NO_CHARGES


@<TRIPOS>ATOM
   1 C1             0.0964     1.5707     0.2395 C.ar    
   2 C2             0.0466     0.1743     0.2328 C.ar    
   3 C3             1.2224    -0.5614     0.1542 C.ar    
   4 C4             2.4621     0.0870     0.0811 C.ar    
   5 C5             2.4942     1.4838     0.0649 C.ar    
   6 C6             1.3113     2.2125     0.1559 C.ar    
   7 C7             3.6699    -0.7458     0.0567 C.2     
   8 N8             4.7289    -0.5811    -0.6558 N.2     
   9 C9             4.8514     0.5238    -1.6139 C.3     
  10 C10            4.7483     1.8133    -0.8413 C.2     
  11 N11            3.6912     2.1911    -0.0749 N.pl3   
  12 C12            4.0054     3.3854     0.4944 C.2     
  13 C13            5.6725     2.8069    -0.7665 C.2     
  14 N14            5.1816     3.7564     0.0714 N.2     
  15 C15            3.6707    -1.9173     0.9619 C.ar    
  16 C16            3.6449    -1.7341     2.3471 C.ar    
  17 C17            3.6914    -3.2090     0.4360 C.ar    
  18 C18            3.6920    -4.2967     1.2845 C.ar    
  19 C19            3.6722    -4.1101     2.6555 C.ar    
  20 C20            3.6458    -2.8333     3.1857 C.ar    
  21 C21           -1.2156    -0.4979     0.3076 C.1     
  22 C22           -2.2504    -1.0491     0.3688 C.1     
  23 C23            6.9701     2.8462    -1.4663 C.2     
  24 N24            7.8755     3.8086    -1.3996 N.2     
  25 O25            7.4657     1.9097    -2.2909 O.3     
  26 N26            8.5556     2.2561    -2.6946 N.2     
  27 C27            8.8808     3.4118    -2.1948 C.2     
  28 C28           10.1567     4.1686    -2.4604 C.3     
  29 F29            3.6196    -0.4866     2.8652 F       
  30 C30            9.9639     5.0844    -3.6708 C.3     
  31 C31           11.2592     5.8528    -3.9404 C.3     
  32 H32           -0.8159     2.1448     0.3055 H       
  33 H33            1.1806    -1.6406     0.1497 H       
  34 H34            1.3473     3.2919     0.1610 H       
  35 H35            5.8167     0.4710    -2.1174 H       
  36 H36            4.0474     0.4675    -2.3477 H       
  37 H37            3.3825     3.9365     1.1833 H       
  38 H38            3.7065    -3.3574    -0.6336 H       
  39 H39            3.7077    -5.2970     0.8775 H       
  40 H40            3.6725    -4.9658     3.3145 H       
  41 H41            3.6308    -2.6944     4.2566 H       
  42 H42           -3.1759    -1.5420     0.4236 H       
  43 H43           10.4113     4.7692    -1.5872 H       
  44 H44           10.9622     3.4629    -2.6634 H       
  45 H45            9.7092     4.4838    -4.5440 H       
  46 H46            9.1584     5.7902    -3.4677 H       
  47 H47           11.1219     6.5052    -4.8027 H       
  48 H48           11.5139     6.4534    -3.0672 H       
  49 H49           12.0647     5.1470    -4.1434 H       
@<TRIPOS>BOND
   1    1    2 ar
   2    1    6 ar
   3    1   32 1
   4    2    3 ar
   5    2   21 1
   6    3    4 ar
   7    3   33 1
   8    4    5 ar
   9    4    7 1
  10    5    6 ar
  11    5   11 1
  12    6   34 1
  13    7    8 2
  14    7   15 1
  15    8    9 1
  16    9   10 1
  17    9   35 1
  18    9   36 1
  19   10   11 1
  20   10   13 2
  21   11   12 1
  22   12   14 2
  23   12   37 1
  24   13   14 1
  25   13   23 1
  26   15   16 ar
  27   15   17 ar
  28   16   29 1
  29   16   20 ar
  30   17   18 ar
  31   17   38 1
  32   18   19 ar
  33   18   39 1
  34   19   20 ar
  35   19   40 1
  36   20   41 1
  37   21   22 3
  38   22   42 1
  39   23   24 2
  40   23   25 1
  41   24   27 1
  42   25   26 1
  43   26   27 2
  44   27   28 1
  45   28   30 1
  46   28   43 1
  47   28   44 1
  48   30   31 1
  49   30   45 1
  50   30   46 1
  51   31   47 1
  52   31   48 1
  53   31   49 1

#	End of record

