#	Name: ASD01914042
#	Creating user name:	WinNT
#	Creation time:	15. 06. 2019 20:02

#	Modifying user name:	WinNT
#	Modification time:	15. 06. 2019 20:02

#	Program:	/corina/corina34_cracker 3.40 0067  02.08.2006

@<TRIPOS>MOLECULE
ASD01914042
  52   54    0    0    0
SMALL
NO_CHARGES


@<TRIPOS>ATOM
   1 C1            -0.0167     1.3779     0.0096 C.ar    
   2 C2             0.0021    -0.0041     0.0020 C.ar    
   3 C3             1.2099    -0.6820    -0.0132 C.ar    
   4 C4             2.3810     1.4110    -0.0131 C.ar    
   5 C5             1.1694     2.0866     0.0021 C.ar    
   6 O6             3.5481     2.1071    -0.0210 O.3     
   7 C7             4.7574     1.3459    -0.0367 C.3     
   8 C8             5.9394     2.2807    -0.0434 C.ar    
   9 N9             7.1608     1.7823    -0.0579 N.ar    
  10 C10            8.2272     2.5549    -0.0644 C.ar    
  11 C11            8.0971     3.9440    -0.0556 C.ar    
  12 C12            6.8134     4.5029    -0.0403 C.ar    
  13 C13            5.7258     3.6477    -0.0401 C.ar    
  14 C14            9.2945     4.8111    -0.0619 C.2     
  15 N15           10.5248     4.2611    -0.0763 N.am    
  16 O16            9.1693     6.0202    -0.0542 O.2     
  17 C17            2.3995     0.0240    -0.0208 C.ar    
  18 C18           11.7113     5.1204    -0.0825 C.3     
  19 F19            1.2262    -2.0329    -0.0202 F       
  20 C20           12.9704     4.2513    -0.0988 C.3     
  21 C21           13.0334     3.4653    -1.4121 C.3     
  22 C22           14.3345     2.6595    -1.4535 C.3     
  23 O23           15.4469     3.5462    -1.3172 O.3     
  24 C24           15.4662     4.2732    -0.0871 C.3     
  25 C25           14.2106     5.1438     0.0093 C.3     
  26 C26           15.4973     3.2911     1.0856 C.3     
  27 C27           16.7094     5.1638    -0.0402 C.3     
  28 H28           -0.9596     1.9044     0.0169 H       
  29 H29           -0.9262    -0.5561     0.0083 H       
  30 H30            1.1533     3.1665     0.0084 H       
  31 H31            4.7998     0.7130     0.8498 H       
  32 H32            4.7825     0.7220    -0.9301 H       
  33 H33            9.2110     2.1094    -0.0762 H       
  34 H34            6.6757     5.5741    -0.0331 H       
  35 H35            4.7208     4.0429    -0.0285 H       
  36 H36           10.6247     3.2963    -0.0824 H       
  37 H37            3.3416    -0.5040    -0.0323 H       
  38 H38           11.6960     5.7545    -0.9689 H       
  39 H39           11.7124     5.7448     0.8109 H       
  40 H40           12.9450     3.5568     0.7409 H       
  41 H41           12.1826     2.7865    -1.4715 H       
  42 H42           13.0072     4.1583    -2.2530 H       
  43 H43           14.3419     1.9387    -0.6359 H       
  44 H44           14.4050     2.1315    -2.4045 H       
  45 H45           14.2081     5.8707    -0.8030 H       
  46 H46           14.2016     5.6655     0.9663 H       
  47 H47           16.3908     2.6707     1.0163 H       
  48 H48           15.5121     3.8458     2.0238 H       
  49 H49           14.6113     2.6571     1.0522 H       
  50 H50           16.6866     5.8637    -0.8755 H       
  51 H51           16.7240     5.7183     0.8981 H       
  52 H52           17.6032     4.5439    -0.1099 H       
@<TRIPOS>BOND
   1    1    2 ar
   2    1    5 ar
   3    1   28 1
   4    2    3 ar
   5    2   29 1
   6    3   17 ar
   7    3   19 1
   8    4    5 ar
   9    4    6 1
  10    4   17 ar
  11    5   30 1
  12    6    7 1
  13    7    8 1
  14    7   31 1
  15    7   32 1
  16    8    9 ar
  17    8   13 ar
  18    9   10 ar
  19   10   11 ar
  20   10   33 1
  21   11   12 ar
  22   11   14 1
  23   12   13 ar
  24   12   34 1
  25   13   35 1
  26   14   15 am
  27   14   16 2
  28   15   18 1
  29   15   36 1
  30   17   37 1
  31   18   20 1
  32   18   38 1
  33   18   39 1
  34   20   21 1
  35   20   25 1
  36   20   40 1
  37   21   22 1
  38   21   41 1
  39   21   42 1
  40   22   23 1
  41   22   43 1
  42   22   44 1
  43   23   24 1
  44   24   25 1
  45   24   26 1
  46   24   27 1
  47   25   45 1
  48   25   46 1
  49   26   47 1
  50   26   48 1
  51   26   49 1
  52   27   50 1
  53   27   51 1
  54   27   52 1

#	End of record

