#	Name: ASD01150659
#	Creating user name:	WinNT
#	Creation time:	15. 06. 2019 19:04

#	Modifying user name:	WinNT
#	Modification time:	15. 06. 2019 19:04

#	Program:	/corina/corina34_cracker 3.40 0067  02.08.2006

@<TRIPOS>MOLECULE
ASD01150659
  47   49    0    0    0
SMALL
NO_CHARGES


@<TRIPOS>ATOM
   1 C1             0.2382     1.3559     0.9183 C.ar    
   2 C2             0.2565    -0.0251     0.8987 C.ar    
   3 C3             1.9433     0.0175    -0.8088 C.ar    
   4 C4             1.9272     1.4049    -0.7920 C.ar    
   5 C5             1.0739     2.0754     0.0727 C.ar    
   6 N6             1.0546     3.4748     0.0928 N.am    
   7 C7            -0.1217     4.1232     0.0243 C.2     
   8 N8            -0.1739     5.4683     0.0414 N.am    
   9 C9             0.9644     6.1873     0.1278 C.2     
  10 C10            2.2487     5.4854     0.2026 C.2     
  11 N11            2.2595     4.1809     0.1896 N.2     
  12 O12            0.9252     7.4038     0.1430 O.2     
  13 C13           -1.4675     6.1518    -0.0343 C.3     
  14 O14           -1.1535     3.4849    -0.0546 O.2     
  15 C15           -2.0055     6.3644     1.3572 C.ar    
  16 C16            3.5380     6.2594     0.2999 C.3     
  17 C17            4.7150     5.2839     0.3635 C.3     
  18 C18            1.1052    -0.6957     0.0387 C.ar    
  19 N19            2.8027    -0.6624    -1.6790 N.am    
  20 C20            3.3342    -1.8457    -1.3132 C.2     
  21 O21            3.1525    -2.2715    -0.1921 O.2     
  22 C22            4.1541    -2.6398    -2.2971 C.3     
  23 C23           -1.6958     7.5209     2.0485 C.ar    
  24 C24           -2.1889     7.7165     3.3247 C.ar    
  25 C25           -2.9926     6.7547     3.9105 C.ar    
  26 C26           -3.3022     5.5975     3.2182 C.ar    
  27 C27           -2.8131     5.4056     1.9398 C.ar    
  28 Cl28          -3.6119     6.9994     5.5137 Cl      
  29 H29           -0.4294     1.8771     1.5884 H       
  30 H30           -0.3936    -0.5819     1.5572 H       
  31 H31            2.5774     1.9617    -1.4505 H       
  32 H32           -1.3406     7.1162    -0.5262 H       
  33 H33           -2.1677     5.5420    -0.6053 H       
  34 H34            3.6441     6.9001    -0.5755 H       
  35 H35            3.5261     6.8736     1.2003 H       
  36 H36            5.6475     5.8437     0.4338 H       
  37 H37            4.6089     4.6432     1.2389 H       
  38 H38            4.7269     4.6697    -0.5369 H       
  39 H39            1.1171    -1.7756     0.0258 H       
  40 H40            3.0160    -0.2821    -2.5455 H       
  41 H41            4.2067    -2.1021    -3.2437 H       
  42 H42            5.1604    -2.7796    -1.9021 H       
  43 H43            3.6883    -3.6122    -2.4569 H       
  44 H44           -1.0681     8.2715     1.5913 H       
  45 H45           -1.9466     8.6198     3.8648 H       
  46 H46           -3.9296     4.8463     3.6749 H       
  47 H47           -3.0547     4.5023     1.3992 H       
@<TRIPOS>BOND
   1    1    2 ar
   2    1    5 ar
   3    1   29 1
   4    2   18 ar
   5    2   30 1
   6    3    4 ar
   7    3   19 1
   8    3   18 ar
   9    4    5 ar
  10    4   31 1
  11    5    6 1
  12    6    7 am
  13    6   11 1
  14    7    8 am
  15    7   14 2
  16    8    9 am
  17    8   13 1
  18    9   10 1
  19    9   12 2
  20   10   11 2
  21   10   16 1
  22   13   15 1
  23   13   32 1
  24   13   33 1
  25   15   23 ar
  26   15   27 ar
  27   16   17 1
  28   16   34 1
  29   16   35 1
  30   17   36 1
  31   17   37 1
  32   17   38 1
  33   18   39 1
  34   19   20 am
  35   19   40 1
  36   20   21 2
  37   20   22 1
  38   22   41 1
  39   22   42 1
  40   22   43 1
  41   23   24 ar
  42   23   44 1
  43   24   25 ar
  44   24   45 1
  45   25   26 ar
  46   25   28 1
  47   26   27 ar
  48   26   46 1
  49   27   47 1

#	End of record

