#	Name: ASD01820168
#	Creating user name:	WinNT
#	Creation time:	15. 06. 2019 19:36

#	Modifying user name:	WinNT
#	Modification time:	15. 06. 2019 19:36

#	Program:	/corina/corina34_cracker 3.40 0067  02.08.2006

@<TRIPOS>MOLECULE
ASD01820168
  90   94    0    0    0
SMALL
NO_CHARGES


@<TRIPOS>ATOM
   1 C1            -0.0178     1.4633     0.0101 C.ar    
   2 C2             0.0021    -0.0041     0.0020 C.ar    
   3 C3            -1.4172    -0.4065     0.0134 C.2     
   4 N4            -2.1803     0.6999     0.0266 N.am    
   5 C5            -1.4476     1.8268     0.0198 C.2     
   6 C6            -3.6451     0.6800     0.0401 C.3     
   7 C7            -4.1417     0.6649     1.4871 C.3     
   8 C8            -5.6715     0.6441     1.5012 C.3     
   9 N9            -6.1483     0.6296     2.8905 N.4     
  10 C10           -7.6171     0.6096     2.9040 C.3     
  11 C11           -8.1137     0.5946     4.3511 C.3     
  12 C12           -9.6435     0.5737     4.3651 C.3     
  13 C13          -10.1401     0.5587     5.8122 C.3     
  14 C14          -11.6699     0.5378     5.8262 C.3     
  15 C15          -12.1665     0.5228     7.2733 C.3     
  16 N16          -13.6353     0.5028     7.2867 N.4     
  17 C17          -14.1122     0.4884     8.6761 C.3     
  18 C18          -15.6419     0.4675     8.6901 C.3     
  19 N19          -17.6034     0.4325    10.1507 N.am    
  20 O20           -1.8899     2.9585     0.0292 O.2     
  21 O21           -1.8286    -1.5498     0.0106 O.2     
  22 C22          -16.1386     0.4525    10.1372 C.3     
  23 C23          -18.3493    -0.6870    10.1513 C.2     
  24 C24          -19.7764    -0.3021    10.1666 C.ar    
  25 C25          -19.7955     1.1076    10.1747 C.ar    
  26 C26          -18.3794     1.5312    10.1698 C.2     
  27 C27          -20.9687    -1.0073    10.1741 C.ar    
  28 C28          -22.1732    -0.3208    10.1894 C.ar    
  29 C29          -22.1920     1.0609    10.1973 C.ar    
  30 C30          -21.0065     1.7800    10.1896 C.ar    
  31 O31          -17.9217    -1.8237    10.1406 O.2     
  32 O32          -17.9828     2.6791    10.1742 O.2     
  33 C33          -14.1476     1.6993     6.6056 C.3     
  34 C34          -14.1151    -0.6993     6.5919 C.3     
  35 C35           -5.6360    -0.5669     3.5717 C.3     
  36 C36           -5.6686     1.8317     3.5854 C.3     
  37 C37            1.1616     2.1667     0.0026 C.ar    
  38 C38            2.3872     1.4709    -0.0129 C.ar    
  39 C39            2.4063     0.0537    -0.0206 C.ar    
  40 C40            1.2001    -0.6751    -0.0126 C.ar    
  41 C41            3.6034     2.1746    -0.0213 C.ar    
  42 C42            4.7818     1.4903    -0.0366 C.ar    
  43 C43            4.8005     0.0987    -0.0441 C.ar    
  44 C44            3.6409    -0.6171    -0.0364 C.ar    
  45 H45           -4.0252     1.5678    -0.4653 H       
  46 H46           -4.0011    -0.2120    -0.4755 H       
  47 H47           -3.7616    -0.2229     1.9925 H       
  48 H48           -3.7858     1.5569     2.0027 H       
  49 H49           -6.0516     1.5319     0.9958 H       
  50 H50           -6.0275    -0.2479     0.9856 H       
  51 H51           -7.9973     1.4974     2.3986 H       
  52 H52           -7.9731    -0.2824     2.3884 H       
  53 H53           -7.7336    -0.2932     4.8565 H       
  54 H54           -7.7578     1.4865     4.8666 H       
  55 H55          -10.0237     1.4615     3.8597 H       
  56 H56           -9.9995    -0.3182     3.8495 H       
  57 H57           -9.7600    -0.3291     6.3176 H       
  58 H58           -9.7842     1.4507     6.3277 H       
  59 H59          -12.0501     1.4256     5.3208 H       
  60 H60          -12.0259    -0.3541     5.3106 H       
  61 H61          -11.7864    -0.3650     7.7787 H       
  62 H62          -11.8106     1.4148     7.7888 H       
  63 H63          -13.7320    -0.3995     9.1815 H       
  64 H64          -13.7562     1.3803     9.1917 H       
  65 H65          -16.0221     1.3553     8.1848 H       
  66 H66          -15.9979    -0.4245     8.1746 H       
  67 H67          -15.7584    -0.4353    10.6426 H       
  68 H68          -15.7826     1.3444    10.6528 H       
  69 H69          -20.9600    -2.0873    10.1676 H       
  70 H70          -23.1033    -0.8698    10.1949 H       
  71 H71          -23.1366     1.5843    10.2093 H       
  72 H72          -21.0272     2.8598    10.1958 H       
  73 H73          -13.7938     1.7100     5.5747 H       
  74 H74          -15.2375     1.6844     6.6156 H       
  75 H75          -13.7917     2.5912     7.1212 H       
  76 H76          -13.7349    -1.5871     7.0973 H       
  77 H77          -15.2049    -0.7142     6.6019 H       
  78 H78          -13.7613    -0.6886     5.5610 H       
  79 H79           -4.5462    -0.5520     3.5617 H       
  80 H80           -5.9898    -0.5776     4.6026 H       
  81 H81           -5.9920    -1.4588     3.0561 H       
  82 H82           -6.0488     2.7196     3.0800 H       
  83 H83           -6.0224     1.8210     4.6163 H       
  84 H84           -4.5788     1.8466     3.5754 H       
  85 H85            1.1501     3.2466     0.0082 H       
  86 H86            1.2178    -1.7549    -0.0187 H       
  87 H87            3.6043     3.2546    -0.0159 H       
  88 H88            5.7141     2.0354    -0.0434 H       
  89 H89            5.7471    -0.4211    -0.0566 H       
  90 H90            3.6707    -1.6967    -0.0420 H       
@<TRIPOS>BOND
   1    1    2 ar
   2    1   37 ar
   3    1    5 1
   4    2    3 1
   5    2   40 ar
   6    3    4 am
   7    3   21 2
   8    4    5 am
   9    4    6 1
  10    5   20 2
  11    6    7 1
  12    6   45 1
  13    6   46 1
  14    7    8 1
  15    7   47 1
  16    7   48 1
  17    8    9 1
  18    8   49 1
  19    8   50 1
  20    9   10 1
  21    9   35 1
  22    9   36 1
  23   10   11 1
  24   10   51 1
  25   10   52 1
  26   11   12 1
  27   11   53 1
  28   11   54 1
  29   12   13 1
  30   12   55 1
  31   12   56 1
  32   13   14 1
  33   13   57 1
  34   13   58 1
  35   14   15 1
  36   14   59 1
  37   14   60 1
  38   15   16 1
  39   15   61 1
  40   15   62 1
  41   16   17 1
  42   16   33 1
  43   16   34 1
  44   17   18 1
  45   17   63 1
  46   17   64 1
  47   18   22 1
  48   18   65 1
  49   18   66 1
  50   19   23 am
  51   19   22 1
  52   19   26 am
  53   22   67 1
  54   22   68 1
  55   23   24 1
  56   23   31 2
  57   24   25 ar
  58   24   27 ar
  59   25   26 1
  60   25   30 ar
  61   26   32 2
  62   27   28 ar
  63   27   69 1
  64   28   29 ar
  65   28   70 1
  66   29   30 ar
  67   29   71 1
  68   30   72 1
  69   33   73 1
  70   33   74 1
  71   33   75 1
  72   34   76 1
  73   34   77 1
  74   34   78 1
  75   35   79 1
  76   35   80 1
  77   35   81 1
  78   36   82 1
  79   36   83 1
  80   36   84 1
  81   37   38 ar
  82   37   85 1
  83   38   39 ar
  84   38   41 ar
  85   39   40 ar
  86   39   44 ar
  87   40   86 1
  88   41   42 ar
  89   41   87 1
  90   42   43 ar
  91   42   88 1
  92   43   44 ar
  93   43   89 1
  94   44   90 1

#	End of record

