#	Name: ASD01914580
#	Creating user name:	WinNT
#	Creation time:	15. 06. 2019 20:03

#	Modifying user name:	WinNT
#	Modification time:	15. 06. 2019 20:03

#	Program:	/corina/corina34_cracker 3.40 0067  02.08.2006

@<TRIPOS>MOLECULE
ASD01914580
  39   42    0    0    0
SMALL
NO_CHARGES


@<TRIPOS>ATOM
   1 C1            -0.0178     1.4608     0.0101 C.3     
   2 N2             0.0021    -0.0041     0.0020 N.am    
   3 C3             0.0240    -0.7264     1.2784 C.3     
   4 C4            -1.2160    -1.5804     1.3432 C.2     
   5 C5            -2.2039    -1.5278     2.2759 C.2     
   6 C6            -2.2497    -0.6607     3.4146 C.1     
   7 C7            -2.2873     0.0502     4.3482 C.1     
   8 C8            -2.3332     0.9173     5.4869 C.ar    
   9 C9            -3.4168     0.8628     6.3678 C.ar    
  10 C10           -3.4540     1.7010     7.4623 C.ar    
  11 C11           -2.4220     2.5945     7.6893 C.ar    
  12 C12           -1.3460     2.6545     6.8212 C.ar    
  13 C13           -1.2919     1.8182     5.7259 C.ar    
  14 N14           -3.1394    -2.4496     1.9283 N.2     
  15 C15           -2.7580    -3.0573     0.8391 C.2     
  16 N16           -1.5526    -2.5573     0.4564 N.pl3   
  17 C17           -0.7768    -2.9803    -0.6233 C.ar    
  18 C18           -0.0046    -2.0963    -1.3795 C.ar    
  19 C19           -0.0057    -0.6485    -1.1658 C.2     
  20 O20           -0.0053     0.0446    -2.1648 O.2     
  21 C21            0.7963    -2.6092    -2.4157 C.ar    
  22 Cl22           1.7982    -1.5359    -3.3419 Cl      
  23 C23            0.7919    -3.9560    -2.7006 C.ar    
  24 C24           -0.0031    -4.8206    -1.9672 C.ar    
  25 C25           -0.7803    -4.3370    -0.9360 C.ar    
  26 H26            1.0048     1.8381     0.0023 H       
  27 H27           -0.5450     1.8219    -0.8730 H       
  28 H28           -0.5280     1.8123     0.9069 H       
  29 H29            0.9108    -1.3582     1.3302 H       
  30 H30            0.0269    -0.0159     2.1051 H       
  31 H31           -4.2231     0.1662     6.1917 H       
  32 H32           -4.2909     1.6603     8.1438 H       
  33 H33           -2.4566     3.2485     8.5481 H       
  34 H34           -0.5443     3.3546     7.0045 H       
  35 H35           -0.4514     1.8659     5.0493 H       
  36 H36           -3.3093    -3.8309     0.3252 H       
  37 H37            1.4102    -4.3394    -3.4987 H       
  38 H38           -0.0144    -5.8744    -2.2031 H       
  39 H39           -1.3967    -5.0164    -0.3659 H       
@<TRIPOS>BOND
   1    1    2 1
   2    1   26 1
   3    1   27 1
   4    1   28 1
   5    2    3 1
   6    2   19 am
   7    3    4 1
   8    3   29 1
   9    3   30 1
  10    4    5 2
  11    4   16 1
  12    5    6 1
  13    5   14 1
  14    6    7 3
  15    7    8 1
  16    8    9 ar
  17    8   13 ar
  18    9   10 ar
  19    9   31 1
  20   10   11 ar
  21   10   32 1
  22   11   12 ar
  23   11   33 1
  24   12   13 ar
  25   12   34 1
  26   13   35 1
  27   14   15 2
  28   15   16 1
  29   15   36 1
  30   16   17 1
  31   17   18 ar
  32   17   25 ar
  33   18   19 1
  34   18   21 ar
  35   19   20 2
  36   21   22 1
  37   21   23 ar
  38   23   24 ar
  39   23   37 1
  40   24   25 ar
  41   24   38 1
  42   25   39 1

#	End of record

