#	Name: ASD05503060
#	Creating user name:	WinNT
#	Creation time:	15. 06. 2019 21:01

#	Modifying user name:	WinNT
#	Modification time:	15. 06. 2019 21:01

#	Program:	/corina/corina34_cracker 3.40 0067  02.08.2006

@<TRIPOS>MOLECULE
ASD05503060
  46   48    0    0    0
SMALL
NO_CHARGES


@<TRIPOS>ATOM
   1 C1             0.0048     1.4017     0.1637 C.ar    
   2 C2            -0.0116     0.0996     0.6473 C.ar    
   3 C3             1.1737    -0.6136     0.7560 C.ar    
   4 C4             2.3720    -0.0231     0.3810 C.ar    
   5 C5             2.3816     1.2798    -0.1020 C.ar    
   6 C6             1.1998     1.9870    -0.2089 C.ar    
   7 N7            -1.2221    -0.4920     1.0248 N.am    
   8 C8            -2.1966     0.2590     1.5751 C.2     
   9 N9             3.5688    -0.7383     0.4894 N.am    
  10 C10            4.7081    -0.2262    -0.0167 C.2     
  11 C11            5.9671    -0.9944     0.0726 C.ar    
  12 C12            5.9355    -2.3890     0.1229 C.ar    
  13 C13            7.1146    -3.1002     0.2058 C.ar    
  14 C14            8.3274    -2.4348     0.2392 C.ar    
  15 C15            8.3671    -1.0529     0.1903 C.ar    
  16 C16            7.1951    -0.3285     0.1014 C.ar    
  17 Br17           7.2509     1.5605     0.0346 Br      
  18 O18            4.6999     0.8678    -0.5468 O.2     
  19 C19           -3.5419    -0.3518     1.8718 C.3     
  20 O20           -1.9907     1.4265     1.8315 O.2     
  21 C21            3.5842    -2.0442     1.1532 C.3     
  22 C22           -4.4743     0.7031     2.4928 C.3     
  23 C23           -5.6785     0.8433     1.5388 C.3     
  24 C24           -5.7142    -0.5020     0.7721 C.3     
  25 C25           -4.2121    -0.8158     0.5621 C.3     
  26 H26           -0.9180     1.9557     0.0747 H       
  27 H27            1.1636    -1.6259     1.1320 H       
  28 H28            3.3139     1.7400    -0.3940 H       
  29 H29            1.2099     2.9996    -0.5843 H       
  30 H30           -1.3600    -1.4428     0.8904 H       
  31 H31            4.9899    -2.9102     0.0973 H       
  32 H32            7.0911    -4.1793     0.2451 H       
  33 H33            9.2472    -2.9969     0.3042 H       
  34 H34            9.3170    -0.5398     0.2175 H       
  35 H35           -3.4268    -1.1953     2.5524 H       
  36 H36            3.2871    -2.8162     0.4434 H       
  37 H37            4.5895    -2.2542     1.5186 H       
  38 H38            2.8877    -2.0339     1.9915 H       
  39 H39           -4.8123     0.3711     3.4745 H       
  40 H40           -3.9537     1.6568     2.5796 H       
  41 H41           -6.5992     0.9844     2.1049 H       
  42 H42           -5.5234     1.6721     0.8480 H       
  43 H43           -6.1903    -1.2767     1.3732 H       
  44 H44           -6.2225    -0.3876    -0.1854 H       
  45 H45           -3.8202    -0.2550    -0.2865 H       
  46 H46           -4.0627    -1.8855     0.4153 H       
@<TRIPOS>BOND
   1    1    2 ar
   2    1    6 ar
   3    1   26 1
   4    2    3 ar
   5    2    7 1
   6    3    4 ar
   7    3   27 1
   8    4    5 ar
   9    4    9 1
  10    5    6 ar
  11    5   28 1
  12    6   29 1
  13    7    8 am
  14    7   30 1
  15    8   19 1
  16    8   20 2
  17    9   10 am
  18    9   21 1
  19   10   11 1
  20   10   18 2
  21   11   12 ar
  22   11   16 ar
  23   12   13 ar
  24   12   31 1
  25   13   14 ar
  26   13   32 1
  27   14   15 ar
  28   14   33 1
  29   15   16 ar
  30   15   34 1
  31   16   17 1
  32   19   22 1
  33   19   25 1
  34   19   35 1
  35   21   36 1
  36   21   37 1
  37   21   38 1
  38   22   23 1
  39   22   39 1
  40   22   40 1
  41   23   24 1
  42   23   41 1
  43   23   42 1
  44   24   25 1
  45   24   43 1
  46   24   44 1
  47   25   45 1
  48   25   46 1

#	End of record

