#	Name: ASD01200353
#	Creating user name:	WinNT
#	Creation time:	15. 06. 2019 19:09

#	Modifying user name:	WinNT
#	Modification time:	15. 06. 2019 19:09

#	Program:	/corina/corina34_cracker 3.40 0067  02.08.2006

@<TRIPOS>MOLECULE
ASD01200353
  28   29    0    0    0
SMALL
NO_CHARGES


@<TRIPOS>ATOM
   1 C1            -0.0163     1.3489     0.0095 C.2     
   2 C2             0.0021    -0.0041     0.0020 C.2     
   3 C3             1.3386    -0.4163    -0.0130 C.2     
   4 N4             2.0954     0.6510    -0.0145 N.2     
   5 N5             1.2632     1.7777    -0.0005 N.pl3   
   6 S6            -1.4084    -1.0600     0.0103 S.o2    
   7 O7            -1.7432    -1.2932    -1.3509 O.2     
   8 O8            -1.1223    -2.1046     0.9302 O.2     
   9 C9             1.7041     3.1748     0.0028 C.3     
  10 C10            0.7229     4.0211    -0.8107 C.3     
  11 C11            1.7507     3.6835     1.4206 C.2     
  12 N12            2.1313     4.9523     1.6691 N.am    
  13 O13            1.4457     2.9512     2.3380 O.2     
  14 C14            2.1743     5.4215     2.9769 C.2     
  15 N15            1.8750     4.7225     4.0267 N.2     
  16 S16            2.6365     7.0024     3.4354 S.3     
  17 C17            2.3730     6.5993     5.1300 C.2     
  18 C18            1.9713     5.3284     5.1953 C.2     
  19 H19           -0.8972     1.9738     0.0172 H       
  20 H20            1.6858    -1.4389    -0.0212 H       
  21 H21           -2.4278    -0.3585     0.5373 H       
  22 H22            2.6974     3.2434    -0.4406 H       
  23 H23            1.0509     5.0606    -0.8082 H       
  24 H24            0.6892     3.6532    -1.8361 H       
  25 H25           -0.2705     3.9526    -0.3672 H       
  26 H26            2.3752     5.5380     0.9355 H       
  27 H27            2.5152     7.2636     5.9696 H       
  28 H28            1.7450     4.8351     6.1290 H       
@<TRIPOS>BOND
   1    1    2 2
   2    1    5 1
   3    1   19 1
   4    2    3 1
   5    2    6 1
   6    3    4 2
   7    3   20 1
   8    4    5 1
   9    5    9 1
  10    6    7 2
  11    6    8 2
  12    6   21 1
  13    9   10 1
  14    9   11 1
  15    9   22 1
  16   10   23 1
  17   10   24 1
  18   10   25 1
  19   11   12 am
  20   11   13 2
  21   12   14 1
  22   12   26 1
  23   14   16 1
  24   14   15 2
  25   15   18 1
  26   16   17 1
  27   17   18 2
  28   17   27 1
  29   18   28 1

#	End of record

