#	Name: ASD07480047
#	Creating user name:	WinNT
#	Creation time:	15. 06. 2019 21:11

#	Modifying user name:	WinNT
#	Modification time:	15. 06. 2019 21:11

#	Program:	/corina/corina34_cracker 3.40 0067  02.08.2006

@<TRIPOS>MOLECULE
ASD07480047
  56   59    0    0    0
SMALL
NO_CHARGES


@<TRIPOS>ATOM
   1 C1            -0.0639     1.2177    -0.4570 C.2     
   2 C2            -0.0042    -0.1812    -0.6139 C.2     
   3 C3             1.2179    -0.8194    -0.4988 C.2     
   4 C4             2.3586    -0.0583    -0.2301 C.2     
   5 N5             2.2654     1.2972    -0.0836 N.pl3   
   6 C6             1.0580     1.9204    -0.1982 C.2     
   7 C7             3.7171    -0.3965    -0.0585 C.2     
   8 C8             4.4061     0.8044     0.1916 C.2     
   9 N9             3.5503     1.7911     0.1754 N.2     
  10 N10           -1.1574    -0.9103    -0.8802 N.pl3   
  11 C11           -2.5098    -0.3520    -1.0247 C.3     
  12 C12           -1.2260    -2.3705    -1.0710 C.3     
  13 C13           -2.6862    -2.7484    -0.7180 C.3     
  14 C14           -3.4675    -1.5332    -1.2875 C.3     
  15 C15           -2.5472     0.6065    -2.1871 C.ar    
  16 C16           -1.6372     0.4771    -3.2186 C.ar    
  17 C17           -1.6712     1.3581    -4.2864 C.ar    
  18 C18           -2.6172     2.3681    -4.3205 C.ar    
  19 C19           -3.5281     2.4969    -3.2891 C.ar    
  20 C20           -3.4972     1.6133    -2.2240 C.ar    
  21 F21           -4.3878     1.7389    -1.2160 F       
  22 F22           -0.7808     1.2322    -5.2946 F       
  23 C23            4.2982    -1.7381    -0.1272 C.2     
  24 N24            5.6220    -1.9095     0.0588 N.am    
  25 O25            3.5856    -2.6993    -0.3525 O.2     
  26 S26            6.2643    -3.4357     0.0806 S.o2    
  27 O27            5.3304    -4.1982     0.8327 O.2     
  28 C28            6.2568    -3.9548    -1.6575 C.3     
  29 O29            7.5961    -3.2489     0.5395 O.2     
  30 C30            6.9963    -2.9161    -2.5032 C.3     
  31 C31            6.9555    -5.3097    -1.7881 C.3     
  32 C32            4.8125    -4.0765    -2.1473 C.3     
  33 H33           -1.0105     1.7297    -0.5487 H       
  34 H34            1.2892    -1.8908    -0.6146 H       
  35 H35            0.9992     2.9923    -0.0804 H       
  36 H36            5.4677     0.8954     0.3684 H       
  37 H37           -2.7973     0.1647    -0.1090 H       
  38 H38           -1.0073    -2.6284    -2.1072 H       
  39 H39           -0.5308    -2.8739    -0.3990 H       
  40 H40           -2.9826    -3.6710    -1.2172 H       
  41 H41           -2.8188    -2.8298     0.3609 H       
  42 H42           -4.4074    -1.3944    -0.7533 H       
  43 H43           -3.6444    -1.6550    -2.3561 H       
  44 H44           -0.8991    -0.3108    -3.1919 H       
  45 H45           -2.6433     3.0556    -5.1530 H       
  46 H46           -4.2660     3.2851    -3.3156 H       
  47 H47            6.1985    -1.1389     0.1799 H       
  48 H48            8.0253    -2.8294    -2.1543 H       
  49 H49            6.9918    -3.2280    -3.5476 H       
  50 H50            6.4985    -1.9508    -2.4101 H       
  51 H51            6.4287    -6.0497    -1.1857 H       
  52 H52            6.9511    -5.6216    -2.8325 H       
  53 H53            7.9845    -5.2230    -1.4392 H       
  54 H54            4.3608    -3.0857    -2.1964 H       
  55 H55            4.8019    -4.5302    -3.1383 H       
  56 H56            4.2458    -4.7003    -1.4560 H       
@<TRIPOS>BOND
   1    1    2 1
   2    1    6 2
   3    1   33 1
   4    2    3 2
   5    2   10 1
   6    3    4 1
   7    3   34 1
   8    4    5 1
   9    4    7 2
  10    5    6 1
  11    5    9 1
  12    6   35 1
  13    7    8 1
  14    7   23 1
  15    8    9 2
  16    8   36 1
  17   10   11 1
  18   10   12 1
  19   11   15 1
  20   11   14 1
  21   11   37 1
  22   12   13 1
  23   12   38 1
  24   12   39 1
  25   13   14 1
  26   13   40 1
  27   13   41 1
  28   14   42 1
  29   14   43 1
  30   15   16 ar
  31   15   20 ar
  32   16   17 ar
  33   16   44 1
  34   17   18 ar
  35   17   22 1
  36   18   19 ar
  37   18   45 1
  38   19   20 ar
  39   19   46 1
  40   20   21 1
  41   23   24 am
  42   23   25 2
  43   24   26 am
  44   24   47 1
  45   26   27 2
  46   26   28 1
  47   26   29 2
  48   28   30 1
  49   28   31 1
  50   28   32 1
  51   30   48 1
  52   30   49 1
  53   30   50 1
  54   31   51 1
  55   31   52 1
  56   31   53 1
  57   32   54 1
  58   32   55 1
  59   32   56 1

#	End of record

