#	Name: ASD03090070
#	Creating user name:	WinNT
#	Creation time:	15. 06. 2019 20:28

#	Modifying user name:	WinNT
#	Modification time:	15. 06. 2019 20:28

#	Program:	/corina/corina34_cracker 3.40 0067  02.08.2006

@<TRIPOS>MOLECULE
ASD03090070
  46   48    0    0    0
SMALL
NO_CHARGES


@<TRIPOS>ATOM
   1 C1            -0.0112     1.4428     0.1246 C.2     
   2 C2             0.0047     0.0006    -0.1333 C.2     
   3 C3             1.2003    -0.6455    -0.3610 C.2     
   4 O4             1.0360     2.0590     0.2013 O.2     
   5 O5            -2.2650    -0.6370    -1.0336 O.3     
   6 N6            -3.1682    -1.4005    -0.7829 N.2     
   7 C7            -2.9154    -2.1260     0.2703 C.2     
   8 C8            -1.6449    -1.7346     0.7340 C.2     
   9 C9            -1.2585    -0.7594    -0.1491 C.2     
  10 C10           -3.8093    -3.1783     0.8742 C.3     
  11 N11            1.2151    -1.9840    -0.6003 N.pl3   
  12 C12            2.4288    -2.6398    -0.8315 C.ar    
  13 C13            2.4444    -4.0072    -1.0760 C.ar    
  14 C14            3.6429    -4.6536    -1.3040 C.ar    
  15 C15            4.8314    -3.9381    -1.2889 C.ar    
  16 C16            4.8169    -2.5725    -1.0444 C.ar    
  17 C17            3.6188    -1.9232    -0.8223 C.ar    
  18 O18            6.0111    -4.5755    -1.5136 O.3     
  19 C19            7.1959    -3.7772    -1.4834 C.3     
  20 C20            8.4141    -4.6619    -1.7557 C.3     
  21 C21           -1.2989     2.1507     0.2854 C.ar    
  22 C22           -2.0231     2.0291     1.4745 C.ar    
  23 C23           -3.2250     2.6939     1.6174 C.ar    
  24 C24           -3.7118     3.4778     0.5869 C.ar    
  25 C25           -2.9994     3.6017    -0.5931 C.ar    
  26 C26           -1.7944     2.9485    -0.7475 C.ar    
  27 Cl27          -1.4138     1.0446     2.7680 Cl      
  28 H28            2.1257    -0.0887    -0.3494 H       
  29 H29           -1.1014    -2.1139     1.5868 H       
  30 H30           -3.5874    -4.1457     0.4237 H       
  31 H31           -3.6353    -3.2296     1.9490 H       
  32 H32           -4.8517    -2.9208     0.6868 H       
  33 H33            0.3840    -2.4840    -0.6107 H       
  34 H34            1.5194    -4.5644    -1.0874 H       
  35 H35            3.6552    -5.7168    -1.4937 H       
  36 H36            5.7426    -2.0163    -1.0325 H       
  37 H37            3.6072    -0.8593    -0.6370 H       
  38 H38            7.1315    -3.0024    -2.2475 H       
  39 H39            7.2962    -3.3126    -0.5025 H       
  40 H40            8.3139    -5.1265    -2.7366 H       
  41 H41            9.3179    -4.0529    -1.7327 H       
  42 H42            8.4785    -5.4366    -0.9916 H       
  43 H43           -3.7863     2.6013     2.5354 H       
  44 H44           -4.6525     3.9954     0.7035 H       
  45 H45           -3.3859     4.2150    -1.3936 H       
  46 H46           -1.2376     3.0503    -1.6673 H       
@<TRIPOS>BOND
   1    1    2 1
   2    1    4 2
   3    1   21 1
   4    2    3 2
   5    2    9 1
   6    3   11 1
   7    3   28 1
   8    5    6 1
   9    5    9 1
  10    6    7 2
  11    7    8 1
  12    7   10 1
  13    8    9 2
  14    8   29 1
  15   10   30 1
  16   10   31 1
  17   10   32 1
  18   11   12 1
  19   11   33 1
  20   12   13 ar
  21   12   17 ar
  22   13   14 ar
  23   13   34 1
  24   14   15 ar
  25   14   35 1
  26   15   16 ar
  27   15   18 1
  28   16   17 ar
  29   16   36 1
  30   17   37 1
  31   18   19 1
  32   19   20 1
  33   19   38 1
  34   19   39 1
  35   20   40 1
  36   20   41 1
  37   20   42 1
  38   21   22 ar
  39   21   26 ar
  40   22   23 ar
  41   22   27 1
  42   23   24 ar
  43   23   43 1
  44   24   25 ar
  45   24   44 1
  46   25   26 ar
  47   25   45 1
  48   26   46 1

#	End of record

