#	Name: ASD01410598
#	Creating user name:	WinNT
#	Creation time:	15. 06. 2019 19:18

#	Modifying user name:	WinNT
#	Modification time:	15. 06. 2019 19:18

#	Program:	/corina/corina34_cracker 3.40 0067  02.08.2006

@<TRIPOS>MOLECULE
ASD01410598
  72   74    0    0    0
SMALL
NO_CHARGES


@<TRIPOS>ATOM
   1 C1             1.3632    -3.6444    -1.9698 C.ar    
   2 O2             0.8846    -3.6248    -0.7004 O.3     
   3 C3            -0.4590    -3.5056    -0.5263 C.ar    
   4 C4            -1.2750    -4.6292    -0.6310 C.ar    
   5 C5            -2.6419    -4.5180    -0.4556 C.ar    
   6 C6            -3.2093    -3.2839    -0.1744 C.ar    
   7 C7            -2.3913    -2.1481    -0.0678 C.ar    
   8 C8            -1.0094    -2.2713    -0.2407 C.ar    
   9 N9            -4.5877    -3.1719     0.0015 N.am    
  10 C10           -5.1232    -3.3051     1.2311 C.2     
  11 C11           -5.4541    -2.9093    -1.1503 C.3     
  12 O12           -6.3277    -3.2939     1.3724 O.2     
  13 C13           -4.2253    -3.4681     2.4304 C.3     
  14 C14           -4.8999    -4.3863     3.4515 C.3     
  15 C15           -3.9883    -4.5518     4.6691 C.3     
  16 C16           -3.7324    -3.1836     5.3043 C.3     
  17 C17           -3.0578    -2.2654     4.2832 C.3     
  18 C18           -3.9694    -2.0999     3.0656 C.3     
  19 C19           -2.8208    -3.3491     6.5219 C.3     
  20 C20           -4.5930    -2.5872    -2.3733 C.3     
  21 O21           -7.2089    -4.3668    -0.3522 O.3     
  22 C22           -6.3076    -4.1460    -1.4389 C.3     
  23 C23           -8.0567    -5.5045    -0.5223 C.3     
  24 O24           -3.8863    -1.3655    -2.1498 O.3     
  25 C25           -3.0479    -0.9716    -3.2379 C.3     
  26 F26           -0.7283    -5.8338    -0.9056 F       
  27 C27            2.7327    -3.6601    -2.1866 C.ar    
  28 C28            3.2091    -3.6801    -3.4925 C.ar    
  29 C29            2.2839    -3.6834    -4.5352 C.ar    
  30 C30            0.9372    -3.6669    -4.2401 C.ar    
  31 N31            0.5177    -3.6537    -2.9885 N.ar    
  32 O32            4.5426    -3.6955    -3.7460 O.3     
  33 C33            4.9419    -3.7155    -5.1180 C.3     
  34 C34           -2.9854    -0.8340     0.2302 C.2     
  35 O35           -4.1739    -0.7440     0.4671 O.2     
  36 O36           -2.2109     0.2690     0.2400 O.3     
  37 C37            3.6908    -3.6552    -1.0234 C.3     
  38 F38            3.0993    -4.2959     0.0707 F       
  39 F39            4.8626    -4.3304    -1.3815 F       
  40 F40            3.9999    -2.3349    -0.6794 F       
  41 H41           -3.2690    -5.3934    -0.5381 H       
  42 H42           -0.3744    -1.4014    -0.1600 H       
  43 H43           -6.1041    -2.0625    -0.9304 H       
  44 H44           -3.2776    -3.9066     2.1178 H       
  45 H45           -5.8476    -3.9479     3.7641 H       
  46 H46           -5.0822    -5.3611     2.9990 H       
  47 H47           -4.4689    -5.2060     5.3966 H       
  48 H48           -3.0406    -4.9903     4.3565 H       
  49 H49           -4.6801    -2.7452     5.6169 H       
  50 H50           -2.8755    -1.2907     4.7357 H       
  51 H51           -2.1101    -2.7039     3.9706 H       
  52 H52           -3.4888    -1.4458     2.3381 H       
  53 H53           -4.9171    -1.6615     3.3782 H       
  54 H54           -1.8731    -3.7876     6.2093 H       
  55 H55           -2.6384    -2.3744     6.9744 H       
  56 H56           -3.3014    -4.0033     7.2494 H       
  57 H57           -3.8797    -3.3947    -2.5382 H       
  58 H58           -5.2321    -2.4822    -3.2501 H       
  59 H59           -6.8755    -3.9895    -2.3559 H       
  60 H60           -5.6601    -5.0149    -1.5563 H       
  61 H61           -8.6610    -5.3762    -1.4204 H       
  62 H62           -7.4456    -6.4016    -0.6207 H       
  63 H63           -8.7103    -5.6034     0.3443 H       
  64 H64           -3.6548    -0.8331    -4.1326 H       
  65 H65           -2.5468    -0.0358    -2.9903 H       
  66 H66           -2.3024    -1.7456    -3.4208 H       
  67 H67            2.6181    -3.6983    -5.5621 H       
  68 H68            0.2157    -3.6694    -5.0438 H       
  69 H69            6.0301    -3.7263    -5.1795 H       
  70 H70            4.5418    -4.6076    -5.5999 H       
  71 H71            4.5584    -2.8278    -5.6210 H       
  72 H72           -2.6458     1.1090     0.4409 H       
@<TRIPOS>BOND
   1    1    2 1
   2    1   27 ar
   3    1   31 ar
   4    2    3 1
   5    3    4 ar
   6    3    8 ar
   7    4    5 ar
   8    4   26 1
   9    5    6 ar
  10    5   41 1
  11    6    7 ar
  12    6    9 1
  13    7    8 ar
  14    7   34 1
  15    8   42 1
  16    9   10 am
  17    9   11 1
  18   10   12 2
  19   10   13 1
  20   11   20 1
  21   11   22 1
  22   11   43 1
  23   13   14 1
  24   13   18 1
  25   13   44 1
  26   14   15 1
  27   14   45 1
  28   14   46 1
  29   15   16 1
  30   15   47 1
  31   15   48 1
  32   16   17 1
  33   16   19 1
  34   16   49 1
  35   17   18 1
  36   17   50 1
  37   17   51 1
  38   18   52 1
  39   18   53 1
  40   19   54 1
  41   19   55 1
  42   19   56 1
  43   20   24 1
  44   20   57 1
  45   20   58 1
  46   21   22 1
  47   21   23 1
  48   22   59 1
  49   22   60 1
  50   23   61 1
  51   23   62 1
  52   23   63 1
  53   24   25 1
  54   25   64 1
  55   25   65 1
  56   25   66 1
  57   27   28 ar
  58   27   37 1
  59   28   29 ar
  60   28   32 1
  61   29   30 ar
  62   29   67 1
  63   30   31 ar
  64   30   68 1
  65   32   33 1
  66   33   69 1
  67   33   70 1
  68   33   71 1
  69   34   35 2
  70   34   36 1
  71   36   72 1
  72   37   38 1
  73   37   39 1
  74   37   40 1

#	End of record

