#	Name: ASD01148720
#	Creating user name:	WinNT
#	Creation time:	15. 06. 2019 19:03

#	Modifying user name:	WinNT
#	Modification time:	15. 06. 2019 19:03

#	Program:	/corina/corina34_cracker 3.40 0067  02.08.2006

@<TRIPOS>MOLECULE
ASD01148720
  56   59    0    0    0
SMALL
NO_CHARGES


@<TRIPOS>ATOM
   1 N1            -0.0159     1.3410     0.0808 N.pl3   
   2 C2             0.0025     0.0050    -0.1114 C.2     
   3 C3             1.3182    -0.4069    -0.1551 C.2     
   4 C4             2.1212     0.7506     0.0212 C.2     
   5 C5             1.2767     1.8045     0.1629 C.2     
   6 C6             1.7983    -1.7845    -0.3470 C.2     
   7 O7             1.0017    -2.6919    -0.4865 O.2     
   8 O8             3.1215    -2.0402    -0.3682 O.3     
   9 C9             1.6784     3.2118     0.3700 C.ar    
  10 C10            0.7783     4.1201     0.9312 C.ar    
  11 C11            1.1537     5.4310     1.1236 C.ar    
  12 C12            2.4318     5.8516     0.7578 C.ar    
  13 C13            3.3314     4.9456     0.1973 C.ar    
  14 C14            2.9603     3.6327     0.0098 C.ar    
  15 N15            4.0050     9.1150     0.9982 N.pl3   
  16 N16            2.7403     9.3868     1.5339 N.2     
  17 C17            2.0365     8.2859     1.5168 C.2     
  18 C18            2.8348     7.2648     0.9647 C.2     
  19 C19            4.0462     7.8117     0.6548 C.2     
  20 C20            5.0936    10.0815     0.8334 C.3     
  21 C21           -1.2064    -0.8837    -0.2531 C.3     
  22 C22           -1.1689     2.1314     0.1755 C.ar    
  23 C23           -2.0106     2.0028     1.2706 C.ar    
  24 C24           -3.1521     2.7878     1.3608 C.ar    
  25 C25           -3.4477     3.6997     0.3537 C.ar    
  26 C26           -2.6071     3.8246    -0.7349 C.ar    
  27 C27           -1.4671     3.0484    -0.8242 C.ar    
  28 S28           -4.2251     2.6282     2.7493 S.3     
  29 C29           -5.5300     3.8384     2.3979 C.3     
  30 C30            3.5228    -3.4222    -0.5617 C.3     
  31 C31            5.0500    -3.5152    -0.5571 C.3     
  32 H32            3.2004     0.7861     0.0392 H       
  33 H33           -0.2119     3.7946     1.2139 H       
  34 H34            0.4577     6.1336     1.5576 H       
  35 H35            4.3211     5.2725    -0.0856 H       
  36 H36            3.6588     2.9300    -0.4199 H       
  37 H37            1.0201     8.1777     1.8654 H       
  38 H38            4.8856     7.2945     0.2141 H       
  39 H39            5.7117    10.0891     1.7312 H       
  40 H40            5.7031     9.7992    -0.0250 H       
  41 H41            4.6758    11.0751     0.6714 H       
  42 H42           -1.4863    -0.9514    -1.3043 H       
  43 H43           -0.9722    -1.8786     0.1254 H       
  44 H44           -2.0349    -0.4636     0.3172 H       
  45 H45           -1.7786     1.2933     2.0512 H       
  46 H46           -4.3357     4.3106     0.4226 H       
  47 H47           -2.8387     4.5336    -1.5159 H       
  48 H48           -0.8093     3.1521    -1.6745 H       
  49 H49           -6.2629     3.8269     3.2045 H       
  50 H50           -5.0914     4.8331     2.3195 H       
  51 H51           -6.0197     3.5821     1.4584 H       
  52 H52            3.1191    -4.0341     0.2450 H       
  53 H53            3.1398    -3.7814    -1.5168 H       
  54 H54            5.4537    -2.9033    -1.3637 H       
  55 H55            5.4330    -3.1560     0.3981 H       
  56 H56            5.3513    -4.5526    -0.7023 H       
@<TRIPOS>BOND
   1    1    2 1
   2    1    5 1
   3    1   22 1
   4    2    3 2
   5    2   21 1
   6    3    4 1
   7    3    6 1
   8    4    5 2
   9    4   32 1
  10    5    9 1
  11    6    7 2
  12    6    8 1
  13    8   30 1
  14    9   10 ar
  15    9   14 ar
  16   10   11 ar
  17   10   33 1
  18   11   12 ar
  19   11   34 1
  20   12   13 ar
  21   12   18 1
  22   13   14 ar
  23   13   35 1
  24   14   36 1
  25   15   16 1
  26   15   19 1
  27   15   20 1
  28   16   17 2
  29   17   18 1
  30   17   37 1
  31   18   19 2
  32   19   38 1
  33   20   39 1
  34   20   40 1
  35   20   41 1
  36   21   42 1
  37   21   43 1
  38   21   44 1
  39   22   23 ar
  40   22   27 ar
  41   23   24 ar
  42   23   45 1
  43   24   25 ar
  44   24   28 1
  45   25   26 ar
  46   25   46 1
  47   26   27 ar
  48   26   47 1
  49   27   48 1
  50   28   29 1
  51   29   49 1
  52   29   50 1
  53   29   51 1
  54   30   31 1
  55   30   52 1
  56   30   53 1
  57   31   54 1
  58   31   55 1
  59   31   56 1

#	End of record

