#	Name: ASD01912075
#	Creating user name:	WinNT
#	Creation time:	15. 06. 2019 19:59

#	Modifying user name:	WinNT
#	Modification time:	15. 06. 2019 19:59

#	Program:	/corina/corina34_cracker 3.40 0067  02.08.2006

@<TRIPOS>MOLECULE
ASD01912075
  28   28    0    0    0
SMALL
NO_CHARGES


@<TRIPOS>ATOM
   1 C1            -0.0167     1.3830     0.0096 C.ar    
   2 C2             0.0021    -0.0041     0.0020 C.ar    
   3 C3             1.2092    -0.6874    -0.0132 C.ar    
   4 C4             2.3980     0.0084    -0.0203 C.ar    
   5 C5             2.3861     1.4077    -0.0127 C.ar    
   6 C6             1.1649     2.0909     0.0022 C.ar    
   7 C7             3.6511     2.1568    -0.0197 C.2     
   8 C8             3.6345     3.6637    -0.0115 C.3     
   9 O9             4.7079     1.5621    -0.0322 O.2     
  10 C10            5.0496     4.1817    -0.0211 C.2     
  11 C11            5.3087     5.6662    -0.0154 C.3     
  12 O12            5.9760     3.4071    -0.0334 O.2     
  13 F13           -1.1604    -0.6925     0.0098 F       
  14 C14            5.4090     6.1609     1.4290 C.3     
  15 C15            6.6206     5.9578    -0.7466 C.3     
  16 H16           -0.9599     1.9090     0.0170 H       
  17 H17            1.2169    -1.7674    -0.0190 H       
  18 H18            3.3371    -0.5249    -0.0314 H       
  19 H19            1.1489     3.1708     0.0078 H       
  20 H20            3.1089     4.0261    -0.8949 H       
  21 H21            3.1245     4.0165     0.8849 H       
  22 H22            4.4899     6.1799    -0.5193 H       
  23 H23            6.2277     5.6472     1.9329 H       
  24 H24            5.5964     7.2346     1.4331 H       
  25 H25            4.4743     5.9531     1.9499 H       
  26 H26            6.5492     5.6054    -1.7756 H       
  27 H27            6.8080     7.0316    -0.7425 H       
  28 H28            7.4394     5.4442    -0.2427 H       
@<TRIPOS>BOND
   1    1    2 ar
   2    1    6 ar
   3    1   16 1
   4    2    3 ar
   5    2   13 1
   6    3    4 ar
   7    3   17 1
   8    4    5 ar
   9    4   18 1
  10    5    6 ar
  11    5    7 1
  12    6   19 1
  13    7    8 1
  14    7    9 2
  15    8   10 1
  16    8   20 1
  17    8   21 1
  18   10   11 1
  19   10   12 2
  20   11   14 1
  21   11   15 1
  22   11   22 1
  23   14   23 1
  24   14   24 1
  25   14   25 1
  26   15   26 1
  27   15   27 1
  28   15   28 1

#	End of record

