#	Name: ASD01910322
#	Creating user name:	WinNT
#	Creation time:	15. 06. 2019 19:55

#	Modifying user name:	WinNT
#	Modification time:	15. 06. 2019 19:55

#	Program:	/corina/corina34_cracker 3.40 0067  02.08.2006

@<TRIPOS>MOLECULE
ASD01910322
  42   44    0    0    0
SMALL
NO_CHARGES


@<TRIPOS>ATOM
   1 C1             0.0718     1.1958    -0.3536 C.ar    
   2 C2             0.0497    -0.0787     0.1835 C.ar    
   3 C3             1.2088    -0.6435     0.6926 C.ar    
   4 C4             2.3943     0.0646     0.6659 C.ar    
   5 C5             2.4222     1.3525     0.1239 C.ar    
   6 C6             1.2488     1.9143    -0.3867 C.ar    
   7 C7             3.6472     2.0934     0.0929 C.1     
   8 C8             4.6515     2.7009     0.0674 C.1     
   9 C9             5.8765     3.4418     0.0363 C.ar    
  10 C10            5.9011     4.7312    -0.5070 C.ar    
  11 C11            7.0698     5.4372    -0.5363 C.ar    
  12 C12            8.2414     4.8720    -0.0241 C.ar    
  13 C13            8.2175     3.5839     0.5188 C.ar    
  14 C14            7.0483     2.8791     0.5544 C.ar    
  15 C15            9.5045     5.6355    -0.0571 C.2     
  16 O16            9.5392     6.7722     0.3728 O.2     
  17 N17           10.6193     5.0723    -0.5637 N.am    
  18 C18           11.8627     5.8465    -0.6797 C.3     
  19 C19           12.3628     5.7625    -2.1253 C.3     
  20 C20           12.4974     4.2927    -2.5297 C.3     
  21 C21           11.1285     3.6130    -2.4519 C.3     
  22 C22           10.6159     3.6709    -1.0049 C.3     
  23 O23           12.9945     4.2105    -3.8669 O.3     
  24 F24            1.1786    -1.8886     1.2163 F       
  25 H25           -0.8342     1.6280    -0.7521 H       
  26 H26           -0.8750    -0.6363     0.2066 H       
  27 H27            3.2971    -0.3755     1.0629 H       
  28 H28            1.2638     2.9090    -0.8072 H       
  29 H29            4.9962     5.1677    -0.9033 H       
  30 H30            7.0889     6.4323    -0.9556 H       
  31 H31            9.1230     3.1478     0.9143 H       
  32 H32            7.0299     1.8841     0.9739 H       
  33 H33           11.6707     6.8873    -0.4193 H       
  34 H34           12.6149     5.4324    -0.0082 H       
  35 H35           11.6511     6.2579    -2.7857 H       
  36 H36           13.3337     6.2517    -2.2033 H       
  37 H37           13.1904     3.7920    -1.8535 H       
  38 H38           10.4284     4.1285    -3.1093 H       
  39 H39           11.2208     2.5722    -2.7625 H       
  40 H40           11.2674     3.0784    -0.3625 H       
  41 H41            9.6003     3.2777    -0.9609 H       
  42 H42           13.1052     3.3060    -4.1905 H       
@<TRIPOS>BOND
   1    1    2 ar
   2    1    6 ar
   3    1   25 1
   4    2    3 ar
   5    2   26 1
   6    3    4 ar
   7    3   24 1
   8    4    5 ar
   9    4   27 1
  10    5    6 ar
  11    5    7 1
  12    6   28 1
  13    7    8 3
  14    8    9 1
  15    9   10 ar
  16    9   14 ar
  17   10   11 ar
  18   10   29 1
  19   11   12 ar
  20   11   30 1
  21   12   13 ar
  22   12   15 1
  23   13   14 ar
  24   13   31 1
  25   14   32 1
  26   15   16 2
  27   15   17 am
  28   17   18 1
  29   17   22 1
  30   18   19 1
  31   18   33 1
  32   18   34 1
  33   19   20 1
  34   19   35 1
  35   19   36 1
  36   20   21 1
  37   20   23 1
  38   20   37 1
  39   21   22 1
  40   21   38 1
  41   21   39 1
  42   22   40 1
  43   22   41 1
  44   23   42 1

#	End of record

