#	Name: ASD05060031
#	Creating user name:	WinNT
#	Creation time:	15. 06. 2019 20:56

#	Modifying user name:	WinNT
#	Modification time:	15. 06. 2019 20:56

#	Program:	/corina/corina34_cracker 3.40 0067  02.08.2006

@<TRIPOS>MOLECULE
ASD05060031
 376  376    0    0    0
SMALL
NO_CHARGES


@<TRIPOS>ATOM
   1 C1             8.6538    -6.3322     3.7119 C.2     
   2 O2             9.2354    -6.3776     2.6486 O.2     
   3 N3            10.8186    -6.6680     4.7634 N.3     
   4 C4             9.4369    -6.2264     4.9951 C.3     
   5 C5             9.4392    -4.7729     5.4727 C.3     
   6 C6            10.2342    -4.6654     6.7755 C.3     
   7 C7            10.3425    -3.1959     7.1872 C.3     
   8 C8             8.0001    -4.3130     5.7141 C.3     
   9 C9             5.1670    -5.8953     2.7048 C.2     
  10 O10            4.8516    -5.4503     3.7880 O.2     
  11 N11            7.3070    -6.3709     3.7455 N.am    
  12 C12            6.5456    -6.4677     2.4977 C.3     
  13 C13            6.4311    -7.9359     2.0826 C.3     
  14 C14            7.8006    -8.4740     1.7568 C.2     
  15 C15            8.3740    -9.5625     2.3045 C.2     
  16 N16            9.6087    -9.6921     1.7278 N.pl3   
  17 C17            9.7468    -8.6777     0.8472 C.2     
  18 N18            8.6596    -7.9561     0.8663 N.2     
  19 C19            1.9912    -5.9356     0.8948 C.2     
  20 O20            2.3919    -6.7571     0.0977 O.2     
  21 N21            4.2846    -5.8779     1.6862 N.am    
  22 C22            2.9444    -5.3215     1.8875 C.3     
  23 C23            2.9858    -3.8056     1.6842 C.3     
  24 C24           -1.3887    -5.2301    -0.3059 C.2     
  25 O25           -1.4337    -4.1670     0.2762 O.2     
  26 N26            0.6935    -5.5718     0.8928 N.am    
  27 C27           -0.2332    -6.1688    -0.0721 C.3     
  28 C28           -0.7579    -7.4962     0.4787 C.3     
  29 C29            0.3982    -8.4912     0.5986 C.3     
  30 C30           -0.1186    -9.7988     1.1411 C.2     
  31 O31           -1.2913    -9.9221     1.4048 O.2     
  32 O32            0.7238   -10.8263     1.3314 O.3     
  33 C33           -4.6969    -5.4457    -1.8462 C.2     
  34 O34           -4.6222    -6.6499    -1.9699 O.2     
  35 N35           -2.3720    -5.5718    -1.1619 N.am    
  36 C36           -3.4953    -4.6593    -1.3891 C.3     
  37 C37           -3.1144    -3.6393    -2.4641 C.3     
  38 C38           -2.7802    -4.3708    -3.7656 C.3     
  39 C39           -2.5207    -3.3478    -4.8734 C.3     
  40 C40           -1.8945    -2.8409    -2.0001 C.3     
  41 C41           -7.9354    -4.6799    -3.3590 C.2     
  42 O42           -7.6395    -3.5175    -3.5384 O.2     
  43 N43           -5.8544    -4.8109    -2.1174 N.am    
  44 C44           -7.0225    -5.5754    -2.5617 C.3     
  45 C45           -7.7736    -6.1137    -1.3423 C.3     
  46 C46           -6.8895    -7.1191    -0.6017 C.3     
  47 C47           -7.6407    -7.6575     0.6177 C.3     
  48 C48           -6.7566    -8.6629     1.3583 C.3     
  49 N49           -7.4778    -9.1798     2.5290 N.3     
  50 C50          -10.9546    -3.6644    -3.5431 C.2     
  51 O51          -10.8467    -3.9469    -2.3686 O.2     
  52 N52           -9.0807    -5.1707    -3.8726 N.am    
  53 C53          -10.0200    -4.2767    -4.5544 C.3     
  54 C54          -10.8292    -5.0733    -5.5799 C.3     
  55 C55           -9.9139    -5.5591    -6.6741 C.2     
  56 O56           -8.7195    -5.3633    -6.5972 O.2     
  57 N57          -10.4227    -6.2113    -7.7382 N.am    
  58 C58          -14.1051    -1.8129    -3.6400 C.2     
  59 O59          -14.2487    -2.0095    -4.8281 O.2     
  60 N60          -11.9104    -2.8029    -3.9439 N.am    
  61 C61          -12.8190    -2.2076    -2.9609 C.3     
  62 C62          -12.1651    -0.9680    -2.3471 C.3     
  63 O63          -11.9939     0.0293    -3.3561 O.3     
  64 C64          -17.0048     0.2523    -2.8092 C.2     
  65 O65          -16.4814     0.6807    -1.8025 O.2     
  66 N66          -15.0958    -1.2414    -2.9269 N.am    
  67 C67          -16.3461    -0.8577    -3.5871 C.3     
  68 C68          -17.2835    -2.0655    -3.6454 C.3     
  69 C69          -16.6691    -3.1453    -4.5384 C.3     
  70 C70          -17.5444    -4.3996    -4.4977 C.3     
  71 C71          -16.5832    -2.6298    -5.9764 C.3     
  72 C72          -20.2995     1.8344    -2.7397 C.2     
  73 O73          -20.7752     1.0050    -3.4859 O.2     
  74 N74          -18.1755     0.7689    -3.2322 N.am    
  75 C75          -18.8158     1.8480    -2.4760 C.3     
  76 C76          -18.2324     3.1931    -2.9134 C.3     
  77 C77          -16.7519     3.2550    -2.5323 C.3     
  78 C78          -16.1685     4.6001    -2.9696 C.3     
  79 C79          -14.6880     4.6620    -2.5885 C.3     
  80 N80          -14.1279     5.9534    -3.0084 N.3     
  81 C81          -23.1043     4.1086    -2.1704 C.2     
  82 O82          -22.3735     5.0127    -1.8247 O.2     
  83 N83          -21.0978     2.7439    -2.1464 N.am    
  84 C84          -22.5401     2.7307    -2.4028 C.3     
  85 C85          -23.2170     1.7363    -1.4573 C.3     
  86 C86          -22.9604     2.1547    -0.0082 C.3     
  87 C87          -23.7391     1.2344     0.9339 C.3     
  88 C88          -22.6442     0.3373    -1.6933 C.3     
  89 C89          -25.2280     5.9977    -0.7728 C.2     
  90 O90          -25.0031     5.1596     0.0744 O.2     
  91 N91          -24.4209     4.3363    -2.3467 N.am    
  92 C92          -24.9521     5.6960    -2.2233 C.3     
  93 C93          -26.2508     5.8108    -3.0241 C.3     
  94 C94          -25.9527     5.6417    -4.4916 C.2     
  95 O95          -24.8084     5.5517    -4.8691 O.2     
  96 O96          -26.9582     5.5912    -5.3792 O.3     
  97 C97          -27.4808     6.9346     1.2369 C.2     
  98 O98          -28.1041     6.4004     0.3441 O.2     
  99 N99          -25.7248     7.1991    -0.4171 N.am    
 100 C100         -26.0909     7.4564     0.9779 C.3     
 101 C101         -26.0534     8.9623     1.2456 C.3     
 102 C102         -24.6317     9.4535     1.1543 C.2     
 103 O103         -23.7251     8.6620     1.0038 O.2     
 104 N104         -24.3675    10.7723     1.2398 N.am    
 105 C105         -29.9962     7.3099     3.8627 C.2     
 106 O106         -29.3671     8.1858     4.4176 O.2     
 107 N107         -28.0311     7.0616     2.4606 N.am    
 108 C108         -29.3823     6.5543     2.7124 C.3     
 109 C109         -29.3118     5.0659     3.0594 C.3     
 110 C110         -28.8049     4.2828     1.8467 C.3     
 111 C111         -28.6157     2.8140     2.2307 C.3     
 112 C112         -29.8246     4.3857     0.7107 C.3     
 113 C113         -31.4534     7.3181     6.6731 C.2     
 114 O114         -30.6889     6.3805     6.7589 O.2     
 115 N115         -31.2444     7.0122     4.2748 N.am    
 116 C116         -31.8831     7.8183     5.3181 C.3     
 117 C117         -33.4036     7.7047     5.1912 C.3     
 118 C118         -33.8458     8.3152     3.8863 C.2     
 119 O119         -33.0234     8.7239     3.1011 O.2     
 120 O120         -35.1533     8.4049     3.5962 O.3     
 121 C121         -32.5486     7.7832    10.1296 C.2     
 122 O122         -33.4187     8.5816     9.8532 O.2     
 123 N123         -31.9186     7.9126     7.7896 N.am    
 124 C124         -31.5009     7.4263     9.1069 C.3     
 125 C125         -30.1702     8.0759     9.4919 C.3     
 126 C126         -29.0744     7.5986     8.5367 C.3     
 127 C127         -30.3000     9.5976     9.3996 C.3     
 128 C128         -32.7122     7.9117    13.6680 C.2     
 129 O129         -31.5114     7.7478    13.7137 O.2     
 130 N130         -32.5187     7.2151    11.3514 N.am    
 131 C131         -33.4599     7.6521    12.3856 C.3     
 132 C132         -34.5061     6.5600    12.6173 C.3     
 133 C133         -35.2866     6.3347    11.3480 C.2     
 134 O134         -35.0038     6.9537    10.3442 O.2     
 135 N135         -36.2990     5.4452    11.3284 N.am    
 136 C136         -33.5894     8.4224    17.1798 C.2     
 137 O137         -34.7510     8.1295    16.9902 O.2     
 138 N138         -33.3780     8.3259    14.7642 N.am    
 139 C139         -32.6511     8.5782    16.0109 C.3     
 140 C140         -32.0888    10.0011    15.9944 C.3     
 141 C141         -31.0431    10.1233    14.8843 C.3     
 142 C142         -30.4808    11.5461    14.8678 C.3     
 143 N143         -29.4794    11.6632    13.8049 N.pl3   
 144 C144         -28.8332    12.8589    13.5979 C.2     
 145 N145         -29.1114    13.8883    14.3474 N.2     
 146 N146         -27.8935    12.9688    12.6004 N.pl3   
 147 C147         -33.5428     9.2701    20.7354 C.2     
 148 O148         -32.5201     9.9128    20.6260 O.2     
 149 N149         -33.1379     8.6087    18.4359 N.am    
 150 C150         -34.0500     8.4572    19.5723 C.3     
 151 C151         -34.1237     6.9828    19.9741 C.3     
 152 S152         -34.7342     6.0042    18.5740 S.3     
 153 C153         -34.2499     9.4852    24.3155 C.2     
 154 O154         -34.9605     8.5027    24.2909 O.2     
 155 N155         -34.2257     9.2831    21.8973 N.am    
 156 C156         -33.7326    10.0734    23.0280 C.3     
 157 C157         -34.2224    11.5166    22.8936 C.3     
 158 C158         -35.7522    11.5374    22.8854 C.3     
 159 C159         -36.2425    12.9867    22.8767 C.3     
 160 C160         -33.6972    12.1137    21.5865 C.3     
 161 C161         -34.4676    10.5496    27.8058 C.2     
 162 O162         -34.1123    11.6788    27.5419 O.2     
 163 N163         -33.9229    10.0511    25.4941 N.am    
 164 C164         -34.4257     9.4793    26.7457 C.3     
 165 C165         -33.4994     8.3490    27.1985 C.3     
 166 C166         -33.5532     7.2072    26.1815 C.3     
 167 C167         -32.6408     6.0938    26.6274 C.2     
 168 O168         -32.0120     6.2024    27.6534 O.2     
 169 O169         -32.5267     4.9814    25.8848 O.3     
 170 C170         -34.8492    10.6541    31.4399 C.2     
 171 O171         -34.7592     9.4488    31.5400 O.2     
 172 N172         -34.8997    10.2520    29.0473 N.am    
 173 C173         -34.9404    11.2924    30.0778 C.3     
 174 C174         -36.2532    12.0701    29.9659 C.3     
 175 C175         -36.1535    10.3760    34.3191 C.2     
 176 O176         -37.1089    10.5707    33.6056 O.2     
 177 N177         -34.8678    11.4227    32.5469 N.am    
 178 C178         -34.7792    10.8022    33.8710 C.3     
 179 C179         -34.2070    11.8105    34.8695 C.3     
 180 C180         -32.7656    12.1485    34.4836 C.3     
 181 C181         -32.2352    13.2480    35.4060 C.3     
 182 C182         -31.8934    10.8994    34.6250 C.3     
 183 O183         -36.3161     9.7802    35.5109 O.3     
 184 H184          10.8486    -7.6440     4.5092 H       
 185 H185          11.2677    -6.0978     4.0624 H       
 186 H186           8.9763    -6.8578     5.7549 H       
 187 H187           9.8998    -4.1415     4.7129 H       
 188 H188           9.7246    -5.2257     7.5594 H       
 189 H189          11.2331    -5.0756     6.6265 H       
 190 H190          10.9089    -3.1193     8.1153 H       
 191 H191          10.8522    -2.6356     6.4033 H       
 192 H192           9.3437    -2.7857     7.3362 H       
 193 H193           7.5395    -4.9444     6.4739 H       
 194 H194           8.0017    -3.2775     6.0543 H       
 195 H195           7.4337    -4.3896     4.7859 H       
 196 H196           6.8419    -6.3347     4.5960 H       
 197 H197           7.0577    -5.9078     1.7152 H       
 198 H198           5.9996    -8.5122     2.9010 H       
 199 H199           5.7907    -8.0163     1.2043 H       
 200 H200           7.9428   -10.2087     3.0547 H       
 201 H201          10.2623   -10.3836     1.9165 H       
 202 H202          10.6120    -8.4960     0.2269 H       
 203 H203           4.5369    -6.2338     0.8198 H       
 204 H204           2.6072    -5.5432     2.9000 H       
 205 H205           1.9886    -3.3916     1.8340 H       
 206 H206           3.6752    -3.3614     2.4022 H       
 207 H207           3.3229    -3.5838     0.6717 H       
 208 H208           0.3730    -4.9147     1.5304 H       
 209 H209           0.2870    -6.3462    -1.0135 H       
 210 H210          -1.1998    -7.3325     1.4615 H       
 211 H211          -1.5134    -7.8968    -0.1972 H       
 212 H212           0.8401    -8.6550    -0.3843 H       
 213 H213           1.1537    -8.0906     1.2745 H       
 214 H214           0.3460   -11.6448     1.6813 H       
 215 H215          -2.3360    -6.4220    -1.6275 H       
 216 H216          -3.7334    -4.1381    -0.4619 H       
 217 H217          -3.9502    -2.9603    -2.6331 H       
 218 H218          -1.8899    -4.9826    -3.6203 H       
 219 H219          -3.6173    -5.0088    -4.0491 H       
 220 H220          -2.2826    -3.8690    -5.8007 H       
 221 H221          -3.4110    -2.7360    -5.0188 H       
 222 H222          -1.6837    -2.7098    -4.5900 H       
 223 H223          -2.1326    -2.3197    -1.0728 H       
 224 H224          -1.0587    -3.5198    -1.8310 H       
 225 H225          -1.6232    -2.1142    -2.7658 H       
 226 H226          -5.9141    -3.8478    -2.0185 H       
 227 H227          -6.6961    -6.4084    -3.1843 H       
 228 H228          -8.0224    -5.2883    -0.6753 H       
 229 H229          -8.6897    -6.6063    -1.6682 H       
 230 H230          -6.6407    -7.9445    -1.2687 H       
 231 H231          -5.9735    -6.6265    -0.2758 H       
 232 H232          -7.8895    -6.8321     1.2847 H       
 233 H233          -8.5568    -8.1501     0.2918 H       
 234 H234          -6.5078    -9.4883     0.6913 H       
 235 H235          -5.8405    -8.1703     1.6842 H       
 236 H236          -6.9145    -9.8464     3.0354 H       
 237 H237          -7.7762    -8.4271     3.1312 H       
 238 H238          -9.2830    -6.1158    -3.7909 H       
 239 H239          -9.4665    -3.4871    -5.0624 H       
 240 H240         -11.2955    -5.9281    -5.0901 H       
 241 H241         -11.6012    -4.4346    -6.0089 H       
 242 H242         -11.3780    -6.3679    -7.7998 H       
 243 H243          -9.8336    -6.5240    -8.4425 H       
 244 H244         -11.9967    -2.5769    -4.8833 H       
 245 H245         -13.0306    -2.9333    -2.1756 H       
 246 H246         -12.8017    -0.5765    -1.5537 H       
 247 H247         -11.1931    -1.2370    -1.9336 H       
 248 H248         -11.5837     0.8449    -3.0374 H       
 249 H249         -14.9810    -1.0842    -1.9767 H       
 250 H250         -16.1321    -0.5147    -4.5993 H       
 251 H251         -17.4268    -2.4631    -2.6407 H       
 252 H252         -18.2458    -1.7591    -4.0555 H       
 253 H253         -15.6691    -3.3882    -4.1792 H       
 254 H254         -18.5444    -4.1566    -4.8570 H       
 255 H255         -17.1067    -5.1688    -5.1339 H       
 256 H256         -17.6056    -4.7668    -3.4733 H       
 257 H257         -17.5832    -2.3869    -6.3357 H       
 258 H258         -15.9597    -1.7362    -6.0054 H       
 259 H259         -16.1455    -3.3991    -6.6126 H       
 260 H260         -18.5941     0.4263    -4.0374 H       
 261 H261         -18.6347     1.7024    -1.4111 H       
 262 H262         -18.3343     3.2994    -3.9934 H       
 263 H263         -18.7696     4.0009    -2.4165 H       
 264 H264         -16.6500     3.1487    -1.4523 H       
 265 H265         -16.2147     2.4471    -3.0292 H       
 266 H266         -16.2704     4.7064    -4.0496 H       
 267 H267         -16.7057     5.4079    -2.4727 H       
 268 H268         -14.5861     4.5556    -1.5085 H       
 269 H269         -14.1508     3.8541    -3.0854 H       
 270 H270         -14.6501     6.7202    -2.6118 H       
 271 H271         -13.1502     6.0189    -2.7677 H       
 272 H272         -20.7173     3.4073    -1.5497 H       
 273 H273         -22.7229     2.4326    -3.4352 H       
 274 H274         -24.2902     1.7265    -1.6481 H       
 275 H275         -21.8949     2.0791     0.2086 H       
 276 H276         -23.2884     3.1841     0.1363 H       
 277 H277         -23.5563     1.5325     1.9663 H       
 278 H278         -24.8046     1.3100     0.7171 H       
 279 H279         -23.4111     0.2050     0.7894 H       
 280 H280         -21.5711     0.3472    -1.5025 H       
 281 H281         -23.1265    -0.3711    -1.0197 H       
 282 H282         -22.8271     0.0392    -2.7256 H       
 283 H283         -25.0168     3.5999    -2.5554 H       
 284 H284         -24.2227     6.4076    -2.6101 H       
 285 H285         -26.9456     5.0349    -2.7027 H       
 286 H286         -26.6968     6.7908    -2.8545 H       
 287 H287         -26.7176     5.4817    -6.3094 H       
 288 H288         -25.8399     7.8933    -1.0847 H       
 289 H289         -25.3848     6.9523     1.6378 H       
 290 H290         -26.6644     9.4783     0.5049 H       
 291 H291         -26.4442     9.1639     2.2430 H       
 292 H292         -25.0926    11.4054     1.3601 H       
 293 H293         -23.4524    11.0885     1.1810 H       
 294 H294         -27.5326     7.4888     3.1746 H       
 295 H295         -29.9937     6.6908     1.8204 H       
 296 H296         -28.6297     4.9200     3.8971 H       
 297 H297         -30.3048     4.7092     3.3331 H       
 298 H298         -27.8521     4.6981     1.5184 H       
 299 H299         -29.5685     2.3986     2.5591 H       
 300 H300         -28.2546     2.2561     1.3667 H       
 301 H301         -27.8893     2.7407     3.0401 H       
 302 H302         -29.9594     5.4322     0.4371 H       
 303 H303         -29.4635     3.8278    -0.1533 H       
 304 H304         -30.7774     3.9704     1.0390 H       
 305 H305         -31.7199     6.2642     3.8807 H       
 306 H306         -31.5860     8.8609     5.2046 H       
 307 H307         -33.6929     6.6541     5.2173 H       
 308 H308         -33.8778     8.2328     6.0185 H       
 309 H309         -35.3883     8.8041     2.7473 H       
 310 H310         -32.5301     8.6625     7.7210 H       
 311 H311         -31.3802     6.3435     9.0730 H       
 312 H312         -29.9104     7.7946    10.5124 H       
 313 H313         -29.3181     7.9085     7.5204 H       
 314 H314         -28.1203     8.0357     8.8309 H       
 315 H315         -29.0044     6.5116     8.5782 H       
 316 H316         -31.0806     9.9376    10.0801 H       
 317 H317         -29.3520    10.0604     9.6739 H       
 318 H318         -30.5598     9.8788     8.3790 H       
 319 H319         -31.8741     6.5170    11.5461 H       
 320 H320         -33.9556     8.5674    12.0624 H       
 321 H321         -34.0077     5.6348    12.9064 H       
 322 H322         -35.1854     6.8702    13.4113 H       
 323 H323         -36.5252     4.9500    12.1312 H       
 324 H324         -36.8014     5.3001    10.5114 H       
 325 H325         -34.3384     8.4569    14.7277 H       
 326 H326         -31.8322     7.8650    16.1048 H       
 327 H327         -32.8972    10.7091    15.8116 H       
 328 H328         -31.6249    10.2196    16.9562 H       
 329 H329         -30.2347     9.4153    15.0671 H       
 330 H330         -31.5070     9.9048    13.9225 H       
 331 H331         -31.2891    12.2542    14.6850 H       
 332 H332         -30.0169    11.7647    15.8296 H       
 333 H333         -29.2724    10.8971    13.2471 H       
 334 H334         -28.6555    14.7320    14.2014 H       
 335 H335         -27.6864    12.2026    12.0426 H       
 336 H336         -27.4375    13.8124    12.4544 H       
 337 H337         -32.2089     8.8430    18.5876 H       
 338 H338         -35.0431     8.8070    19.2901 H       
 339 H339         -33.1306     6.6330    20.2563 H       
 340 H340         -34.8024     6.8701    20.8196 H       
 341 H341         -34.7471     4.7514    19.0632 H       
 342 H342         -35.0437     8.7691    21.9848 H       
 343 H343         -32.6428    10.0585    23.0338 H       
 344 H344         -33.8555    12.1046    23.7349 H       
 345 H345         -36.1178    11.0248    21.9956 H       
 346 H346         -36.1272    11.0323    23.7756 H       
 347 H347         -35.8769    13.4993    23.7665 H       
 348 H348         -35.8675    13.4918    21.9866 H       
 349 H349         -37.3324    13.0015    22.8709 H       
 350 H350         -34.0641    11.5257    20.7452 H       
 351 H351         -34.0461    13.1420    21.4907 H       
 352 H352         -32.6073    12.0989    21.5923 H       
 353 H353         -33.3546    10.8369    25.5138 H       
 354 H354         -35.4296     9.0851    26.5876 H       
 355 H355         -32.4782     8.7231    27.2710 H       
 356 H356         -33.8223     7.9829    28.1731 H       
 357 H357         -34.5744     6.8330    26.1090 H       
 358 H358         -33.2304     7.5732    25.2069 H       
 359 H359         -31.9293     4.2948    26.2116 H       
 360 H360         -35.1839     9.3488    29.2584 H       
 361 H361         -34.1013    11.9741    29.9391 H       
 362 H362         -36.2835    12.8442    30.7326 H       
 363 H363         -36.3192    12.5318    28.9807 H       
 364 H364         -37.0923    11.3884    30.1045 H       
 365 H365         -34.9398    12.3867    32.4669 H       
 366 H366         -34.1268     9.9304    33.8208 H       
 367 H367         -34.8097    12.7186    34.8545 H       
 368 H368         -34.2237    11.3798    35.8707 H       
 369 H369         -32.7379    12.4960    33.4509 H       
 370 H370         -32.2629    12.9005    36.4388 H       
 371 H371         -31.2083    13.4888    35.1311 H       
 372 H372         -32.8565    14.1379    35.3053 H       
 373 H373         -32.2713    10.1162    33.9679 H       
 374 H374         -30.8665    11.1403    34.3501 H       
 375 H375         -31.9211    10.5520    35.6578 H       
 376 H376         -37.2163     9.5249    35.7548 H       
@<TRIPOS>BOND
   1    1    2 2
   2    1    4 1
   3    1   11 am
   4    3    4 1
   5    3  184 1
   6    3  185 1
   7    4    5 1
   8    4  186 1
   9    5    6 1
  10    5    8 1
  11    5  187 1
  12    6    7 1
  13    6  188 1
  14    6  189 1
  15    7  190 1
  16    7  191 1
  17    7  192 1
  18    8  193 1
  19    8  194 1
  20    8  195 1
  21    9   10 2
  22    9   12 1
  23    9   21 am
  24   11   12 1
  25   11  196 1
  26   12   13 1
  27   12  197 1
  28   13   14 1
  29   13  198 1
  30   13  199 1
  31   14   15 2
  32   14   18 1
  33   15   16 1
  34   15  200 1
  35   16   17 1
  36   16  201 1
  37   17   18 2
  38   17  202 1
  39   19   20 2
  40   19   22 1
  41   19   26 am
  42   21   22 1
  43   21  203 1
  44   22   23 1
  45   22  204 1
  46   23  205 1
  47   23  206 1
  48   23  207 1
  49   24   25 2
  50   24   27 1
  51   24   35 am
  52   26   27 1
  53   26  208 1
  54   27   28 1
  55   27  209 1
  56   28   29 1
  57   28  210 1
  58   28  211 1
  59   29   30 1
  60   29  212 1
  61   29  213 1
  62   30   31 2
  63   30   32 1
  64   32  214 1
  65   33   34 2
  66   33   36 1
  67   33   43 am
  68   35   36 1
  69   35  215 1
  70   36   37 1
  71   36  216 1
  72   37   38 1
  73   37   40 1
  74   37  217 1
  75   38   39 1
  76   38  218 1
  77   38  219 1
  78   39  220 1
  79   39  221 1
  80   39  222 1
  81   40  223 1
  82   40  224 1
  83   40  225 1
  84   41   42 2
  85   41   44 1
  86   41   52 am
  87   43   44 1
  88   43  226 1
  89   44   45 1
  90   44  227 1
  91   45   46 1
  92   45  228 1
  93   45  229 1
  94   46   47 1
  95   46  230 1
  96   46  231 1
  97   47   48 1
  98   47  232 1
  99   47  233 1
 100   48   49 1
 101   48  234 1
 102   48  235 1
 103   49  236 1
 104   49  237 1
 105   50   51 2
 106   50   53 1
 107   50   60 am
 108   52   53 1
 109   52  238 1
 110   53   54 1
 111   53  239 1
 112   54   55 1
 113   54  240 1
 114   54  241 1
 115   55   56 2
 116   55   57 am
 117   57  242 1
 118   57  243 1
 119   58   59 2
 120   58   61 1
 121   58   66 am
 122   60   61 1
 123   60  244 1
 124   61   62 1
 125   61  245 1
 126   62   63 1
 127   62  246 1
 128   62  247 1
 129   63  248 1
 130   64   65 2
 131   64   67 1
 132   64   74 am
 133   66   67 1
 134   66  249 1
 135   67   68 1
 136   67  250 1
 137   68   69 1
 138   68  251 1
 139   68  252 1
 140   69   70 1
 141   69   71 1
 142   69  253 1
 143   70  254 1
 144   70  255 1
 145   70  256 1
 146   71  257 1
 147   71  258 1
 148   71  259 1
 149   72   73 2
 150   72   75 1
 151   72   83 am
 152   74   75 1
 153   74  260 1
 154   75   76 1
 155   75  261 1
 156   76   77 1
 157   76  262 1
 158   76  263 1
 159   77   78 1
 160   77  264 1
 161   77  265 1
 162   78   79 1
 163   78  266 1
 164   78  267 1
 165   79   80 1
 166   79  268 1
 167   79  269 1
 168   80  270 1
 169   80  271 1
 170   81   82 2
 171   81   84 1
 172   81   91 am
 173   83   84 1
 174   83  272 1
 175   84   85 1
 176   84  273 1
 177   85   86 1
 178   85   88 1
 179   85  274 1
 180   86   87 1
 181   86  275 1
 182   86  276 1
 183   87  277 1
 184   87  278 1
 185   87  279 1
 186   88  280 1
 187   88  281 1
 188   88  282 1
 189   89   90 2
 190   89   92 1
 191   89   99 am
 192   91   92 1
 193   91  283 1
 194   92   93 1
 195   92  284 1
 196   93   94 1
 197   93  285 1
 198   93  286 1
 199   94   95 2
 200   94   96 1
 201   96  287 1
 202   97   98 2
 203   97  100 1
 204   97  107 am
 205   99  100 1
 206   99  288 1
 207  100  101 1
 208  100  289 1
 209  101  102 1
 210  101  290 1
 211  101  291 1
 212  102  103 2
 213  102  104 am
 214  104  292 1
 215  104  293 1
 216  105  106 2
 217  105  108 1
 218  105  115 am
 219  107  108 1
 220  107  294 1
 221  108  109 1
 222  108  295 1
 223  109  110 1
 224  109  296 1
 225  109  297 1
 226  110  111 1
 227  110  112 1
 228  110  298 1
 229  111  299 1
 230  111  300 1
 231  111  301 1
 232  112  302 1
 233  112  303 1
 234  112  304 1
 235  113  114 2
 236  113  116 1
 237  113  123 am
 238  115  116 1
 239  115  305 1
 240  116  117 1
 241  116  306 1
 242  117  118 1
 243  117  307 1
 244  117  308 1
 245  118  119 2
 246  118  120 1
 247  120  309 1
 248  121  122 2
 249  121  124 1
 250  121  130 am
 251  123  124 1
 252  123  310 1
 253  124  125 1
 254  124  311 1
 255  125  126 1
 256  125  127 1
 257  125  312 1
 258  126  313 1
 259  126  314 1
 260  126  315 1
 261  127  316 1
 262  127  317 1
 263  127  318 1
 264  128  129 2
 265  128  131 1
 266  128  138 am
 267  130  131 1
 268  130  319 1
 269  131  132 1
 270  131  320 1
 271  132  133 1
 272  132  321 1
 273  132  322 1
 274  133  134 2
 275  133  135 am
 276  135  323 1
 277  135  324 1
 278  136  137 2
 279  136  139 1
 280  136  149 am
 281  138  139 1
 282  138  325 1
 283  139  140 1
 284  139  326 1
 285  140  141 1
 286  140  327 1
 287  140  328 1
 288  141  142 1
 289  141  329 1
 290  141  330 1
 291  142  143 1
 292  142  331 1
 293  142  332 1
 294  143  144 1
 295  143  333 1
 296  144  145 2
 297  144  146 1
 298  145  334 1
 299  146  335 1
 300  146  336 1
 301  147  148 2
 302  147  150 1
 303  147  155 am
 304  149  150 1
 305  149  337 1
 306  150  151 1
 307  150  338 1
 308  151  152 1
 309  151  339 1
 310  151  340 1
 311  152  341 1
 312  153  154 2
 313  153  156 1
 314  153  163 am
 315  155  156 1
 316  155  342 1
 317  156  157 1
 318  156  343 1
 319  157  158 1
 320  157  160 1
 321  157  344 1
 322  158  159 1
 323  158  345 1
 324  158  346 1
 325  159  347 1
 326  159  348 1
 327  159  349 1
 328  160  350 1
 329  160  351 1
 330  160  352 1
 331  161  162 2
 332  161  164 1
 333  161  172 am
 334  163  164 1
 335  163  353 1
 336  164  165 1
 337  164  354 1
 338  165  166 1
 339  165  355 1
 340  165  356 1
 341  166  167 1
 342  166  357 1
 343  166  358 1
 344  167  168 2
 345  167  169 1
 346  169  359 1
 347  170  171 2
 348  170  173 1
 349  170  177 am
 350  172  173 1
 351  172  360 1
 352  173  174 1
 353  173  361 1
 354  174  362 1
 355  174  363 1
 356  174  364 1
 357  175  176 2
 358  175  178 1
 359  175  183 1
 360  177  178 1
 361  177  365 1
 362  178  179 1
 363  178  366 1
 364  179  180 1
 365  179  367 1
 366  179  368 1
 367  180  181 1
 368  180  182 1
 369  180  369 1
 370  181  370 1
 371  181  371 1
 372  181  372 1
 373  182  373 1
 374  182  374 1
 375  182  375 1
 376  183  376 1

#	End of record

