#	Name: ASD01882089
#	Creating user name:	WinNT
#	Creation time:	15. 06. 2019 19:43

#	Modifying user name:	WinNT
#	Modification time:	15. 06. 2019 19:43

#	Program:	/corina/corina34_cracker 3.40 0067  02.08.2006

@<TRIPOS>MOLECULE
ASD01882089
  60   63    0    0    0
SMALL
NO_CHARGES


@<TRIPOS>ATOM
   1 C1            -0.0161     1.3337     0.0094 C.2     
   2 N2             0.0021    -0.0041     0.0020 N.am    
   3 C3             1.2613    -0.4841    -0.0126 C.2     
   4 C4             2.1640     0.7337    -0.0147 C.3     
   5 N5             1.2200     1.8645     0.0004 N.am    
   6 O6            -1.0354     1.9955     0.0180 O.2     
   7 O7             1.6013    -1.6477    -0.0215 O.2     
   8 C8             1.5609     3.2893     0.0041 C.3     
   9 C9             1.6916     3.7708     1.4261 C.ar    
  10 C10            2.9179     3.7119     2.0635 C.ar    
  11 C11            3.0436     4.1515     3.3656 C.ar    
  12 C12            1.9317     4.6556     4.0386 C.ar    
  13 C13            0.6985     4.7125     3.3911 C.ar    
  14 C14            0.5860     4.2753     2.0870 C.ar    
  15 C15            2.4011     6.4574     9.4563 C.2     
  16 N16            1.2748     6.6730    10.1623 N.am    
  17 C17           -0.0323     6.2996     9.6260 C.3     
  18 C18           -0.1270     6.6303     8.1388 C.3     
  19 C19            1.0641     6.0705     7.4062 C.ar    
  20 C20            0.9444     5.6328     6.1075 C.ar    
  21 C21            2.0602     5.1290     5.4378 C.ar    
  22 C22            3.2963     5.0692     6.0821 C.ar    
  23 C23            3.4170     5.5022     7.3842 C.ar    
  24 C24            2.3001     6.0005     8.0550 C.ar    
  25 C25            1.3612     7.2906    11.4879 C.3     
  26 C26            1.2651     8.8112    11.3493 C.3     
  27 C27            1.3553     9.4562    12.7338 C.3     
  28 O28            3.4897     6.6418     9.9652 O.2     
  29 C29            3.0460     0.7520     1.2354 C.3     
  30 C30            3.0220     0.7655    -1.2811 C.3     
  31 C31           -1.1986    -0.8435     0.0097 C.3     
  32 H32            2.5060     3.4381    -0.5182 H       
  33 H33            0.7749     3.8522    -0.4994 H       
  34 H34            3.7786     3.3209     1.5412 H       
  35 H35            4.0014     4.1047     3.8624 H       
  36 H36           -0.1663     5.1021     3.9076 H       
  37 H37           -0.3679     4.3233     1.5828 H       
  38 H38           -0.1841     5.2292     9.7652 H       
  39 H39           -0.8088     6.8435    10.1640 H       
  40 H40           -1.0394     6.1967     7.7296 H       
  41 H41           -0.1544     7.7124     8.0103 H       
  42 H42           -0.0116     5.6786     5.6073 H       
  43 H43            4.1591     4.6830     5.5597 H       
  44 H44            4.3732     5.4559     7.8841 H       
  45 H45            0.5426     6.9300    12.1108 H       
  46 H46            2.3126     7.0273    11.9501 H       
  47 H47            2.0837     9.1718    10.7265 H       
  48 H48            0.3136     9.0745    10.8872 H       
  49 H49            2.3067     9.1929    13.1960 H       
  50 H50            1.2868    10.5396    12.6351 H       
  51 H51            0.5367     9.0956    13.3567 H       
  52 H52            3.6824    -0.1329     1.2441 H       
  53 H53            3.6682     1.6470     1.2280 H       
  54 H54            2.4158     0.7550     2.1247 H       
  55 H55            2.3749     0.7780    -2.1581 H       
  56 H56            3.6443     1.6604    -1.2759 H       
  57 H57            3.6580    -0.1191    -1.3114 H       
  58 H58           -2.0851    -0.2094     0.0217 H       
  59 H59           -1.2108    -1.4683    -0.8833 H       
  60 H60           -1.1931    -1.4772     0.8965 H       
@<TRIPOS>BOND
   1    1    2 am
   2    1    5 am
   3    1    6 2
   4    2    3 am
   5    2   31 1
   6    3    4 1
   7    3    7 2
   8    4    5 1
   9    4   29 1
  10    4   30 1
  11    5    8 1
  12    8    9 1
  13    8   32 1
  14    8   33 1
  15    9   10 ar
  16    9   14 ar
  17   10   11 ar
  18   10   34 1
  19   11   12 ar
  20   11   35 1
  21   12   13 ar
  22   12   21 1
  23   13   14 ar
  24   13   36 1
  25   14   37 1
  26   15   16 am
  27   15   24 1
  28   15   28 2
  29   16   17 1
  30   16   25 1
  31   17   18 1
  32   17   38 1
  33   17   39 1
  34   18   19 1
  35   18   40 1
  36   18   41 1
  37   19   20 ar
  38   19   24 ar
  39   20   21 ar
  40   20   42 1
  41   21   22 ar
  42   22   23 ar
  43   22   43 1
  44   23   24 ar
  45   23   44 1
  46   25   26 1
  47   25   45 1
  48   25   46 1
  49   26   27 1
  50   26   47 1
  51   26   48 1
  52   27   49 1
  53   27   50 1
  54   27   51 1
  55   29   52 1
  56   29   53 1
  57   29   54 1
  58   30   55 1
  59   30   56 1
  60   30   57 1
  61   31   58 1
  62   31   59 1
  63   31   60 1

#	End of record

