#	Name: ASD01914084
#	Creating user name:	WinNT
#	Creation time:	15. 06. 2019 20:02

#	Modifying user name:	WinNT
#	Modification time:	15. 06. 2019 20:02

#	Program:	/corina/corina34_cracker 3.40 0067  02.08.2006

@<TRIPOS>MOLECULE
ASD01914084
  51   53    0    0    0
SMALL
NO_CHARGES


@<TRIPOS>ATOM
   1 C1            -0.0167     1.3787     0.0096 C.ar    
   2 C2             0.0021    -0.0041     0.0020 C.ar    
   3 C3             2.4003     0.0316    -0.0202 C.ar    
   4 C4             2.3777     1.4181    -0.0135 C.ar    
   5 O5             3.5875    -0.6299    -0.0360 O.3     
   6 C6             4.7740     0.1665    -0.0449 C.3     
   7 C7             5.9828    -0.7331    -0.0620 C.ar    
   8 N8             7.1891    -0.1989    -0.0724 N.ar    
   9 C9             8.2777    -0.9398    -0.0875 C.ar    
  10 C10            8.1884    -2.3322    -0.0935 C.ar    
  11 C11            6.9216    -2.9286    -0.0827 C.ar    
  12 C12            5.8096    -2.1058    -0.0609 C.ar    
  13 C13            9.4107    -3.1637    -0.1114 C.2     
  14 N14           10.6243    -2.5777    -0.1221 N.am    
  15 O15            9.3210    -4.3759    -0.1165 O.2     
  16 C16            1.2078    -0.6797    -0.0126 C.ar    
  17 C17           11.8355    -3.4017    -0.1398 C.3     
  18 C18            1.1694     2.0886     0.0021 C.ar    
  19 Cl19           1.2312    -2.4155    -0.0210 Cl      
  20 C20           12.9856    -2.6046    -0.7584 C.3     
  21 C21           14.2505    -3.4651    -0.7769 C.3     
  22 C22           15.4007    -2.6680    -1.3955 C.3     
  23 C23           15.0336    -2.2699    -2.8265 C.3     
  24 C24           13.7687    -1.4094    -2.8079 C.3     
  25 C25           12.6186    -2.2065    -2.1894 C.3     
  26 C26           12.2025    -3.7998     1.2912 C.3     
  27 H27           -0.9598     1.9049     0.0169 H       
  28 H28           -0.9260    -0.5564     0.0079 H       
  29 H29            3.3039     1.9736    -0.0200 H       
  30 H30            4.7798     0.7998    -0.9320 H       
  31 H31            4.7988     0.7915     0.8478 H       
  32 H32            9.2480    -0.4656    -0.0956 H       
  33 H33            6.8154    -4.0034    -0.0870 H       
  34 H34            4.8166    -2.5304    -0.0521 H       
  35 H35           10.6959    -1.6103    -0.1180 H       
  36 H36           11.6557    -4.2991    -0.7318 H       
  37 H37            1.1518     3.1684     0.0073 H       
  38 H38           13.1654    -1.7072    -0.1664 H       
  39 H39           14.5120    -3.7487     0.2426 H       
  40 H40           14.0708    -4.3625    -1.3689 H       
  41 H41           15.5804    -1.7706    -0.8035 H       
  42 H42           16.3018    -3.2811    -1.4087 H       
  43 H43           15.8530    -1.7021    -3.2671 H       
  44 H44           14.8539    -3.1674    -3.4184 H       
  45 H45           13.9485    -0.5120    -2.2159 H       
  46 H46           13.5073    -1.1258    -3.8274 H       
  47 H47           12.4388    -3.1039    -2.7814 H       
  48 H48           11.7174    -1.5934    -2.1762 H       
  49 H49           13.1037    -4.4128     1.2780 H       
  50 H50           12.3823    -2.9023     1.8832 H       
  51 H51           11.3831    -4.3676     1.7319 H       
@<TRIPOS>BOND
   1    1    2 ar
   2    1   18 ar
   3    1   27 1
   4    2   16 ar
   5    2   28 1
   6    3    4 ar
   7    3    5 1
   8    3   16 ar
   9    4   18 ar
  10    4   29 1
  11    5    6 1
  12    6    7 1
  13    6   30 1
  14    6   31 1
  15    7    8 ar
  16    7   12 ar
  17    8    9 ar
  18    9   10 ar
  19    9   32 1
  20   10   11 ar
  21   10   13 1
  22   11   12 ar
  23   11   33 1
  24   12   34 1
  25   13   14 am
  26   13   15 2
  27   14   17 1
  28   14   35 1
  29   16   19 1
  30   17   20 1
  31   17   26 1
  32   17   36 1
  33   18   37 1
  34   20   21 1
  35   20   25 1
  36   20   38 1
  37   21   22 1
  38   21   39 1
  39   21   40 1
  40   22   23 1
  41   22   41 1
  42   22   42 1
  43   23   24 1
  44   23   43 1
  45   23   44 1
  46   24   25 1
  47   24   45 1
  48   24   46 1
  49   25   47 1
  50   25   48 1
  51   26   49 1
  52   26   50 1
  53   26   51 1

#	End of record

