#	Name: ASD07480005
#	Creating user name:	WinNT
#	Creation time:	15. 06. 2019 21:11

#	Modifying user name:	WinNT
#	Modification time:	15. 06. 2019 21:11

#	Program:	/corina/corina34_cracker 3.40 0067  02.08.2006

@<TRIPOS>MOLECULE
ASD07480005
  50   54    0    0    0
SMALL
NO_CHARGES


@<TRIPOS>ATOM
   1 C1            -0.0170     1.4041     0.0098 C.2     
   2 C2             0.0021    -0.0041     0.0020 C.2     
   3 N3             1.1376    -0.6602    -0.0120 N.2     
   4 N4             2.3558     0.0264    -0.0199 N.pl3   
   5 C5             2.3710     1.4007    -0.0132 C.2     
   6 C6             1.1495     2.1022     0.0024 C.2     
   7 C7             3.6542    -0.3882    -0.0347 C.2     
   8 C8             4.4312     0.7284    -0.0366 C.2     
   9 N9             3.6348     1.7991    -0.0234 N.2     
  10 N10           -1.1986    -0.7080     0.0097 N.pl3   
  11 C11           -1.3336    -2.1720     0.0032 C.3     
  12 C12           -2.5456    -0.1091     0.0323 C.3     
  13 C13           -3.4708    -1.1910    -0.5785 C.3     
  14 C14           -2.8431    -2.4928    -0.0104 C.3     
  15 C15           -0.6977    -2.7509     1.2407 C.ar    
  16 C16           -0.2361    -4.0559     1.2359 C.ar    
  17 C17            0.3487    -4.5877     2.3729 C.ar    
  18 C18            0.4718    -3.8156     3.5120 C.ar    
  19 C19            0.0100    -2.5102     3.5168 C.ar    
  20 C20           -0.5702    -1.9770     2.3787 C.ar    
  21 F21           -0.3565    -4.8109     0.1220 F       
  22 F22            0.1300    -1.7553     4.6309 F       
  23 N23            4.1041    -1.7154    -0.0453 N.am    
  24 C24            5.4258    -1.9788    -0.0595 C.2     
  25 O25            6.2279    -1.0648    -0.0632 O.2     
  26 N26            5.8584    -3.2552    -0.0698 N.am    
  27 C27            7.1649    -3.9303    -0.0858 C.3     
  28 C28            5.2320    -4.5857    -0.0633 C.3     
  29 C29            6.4830    -5.1156    -0.7832 C.3     
  30 O30            6.4343    -5.0085    -2.2073 O.3     
  31 H31           -0.9601     1.9304     0.0171 H       
  32 H32            1.1398     3.1821     0.0076 H       
  33 H33            5.5110     0.7454    -0.0465 H       
  34 H34           -0.8567    -2.5843    -0.8860 H       
  35 H35           -2.8453     0.1121     1.0567 H       
  36 H36           -2.5684     0.7961    -0.5744 H       
  37 H37           -4.4968    -1.0692    -0.2310 H       
  38 H38           -3.4244    -1.1754    -1.6674 H       
  39 H39           -3.0520    -3.3391    -0.6648 H       
  40 H40           -3.2046    -2.6864     0.9995 H       
  41 H41            0.7082    -5.6061     2.3693 H       
  42 H42            0.9278    -4.2304     4.3988 H       
  43 H43           -0.9301    -0.9587     2.3824 H       
  44 H44            3.4642    -2.4444    -0.0424 H       
  45 H45            7.9055    -3.4281    -0.7082 H       
  46 H46            7.5418    -4.1700     0.9084 H       
  47 H47            5.0994    -4.9982     0.9369 H       
  48 H48            4.3258    -4.6419    -0.6664 H       
  49 H49            6.8173    -6.0924    -0.4335 H       
  50 H50            6.0042    -5.7567    -2.6435 H       
@<TRIPOS>BOND
   1    1    2 1
   2    1    6 2
   3    1   31 1
   4    2    3 2
   5    2   10 1
   6    3    4 1
   7    4    5 1
   8    4    7 1
   9    5    6 1
  10    5    9 2
  11    6   32 1
  12    7    8 2
  13    7   23 1
  14    8    9 1
  15    8   33 1
  16   10   11 1
  17   10   12 1
  18   11   15 1
  19   11   14 1
  20   11   34 1
  21   12   13 1
  22   12   35 1
  23   12   36 1
  24   13   14 1
  25   13   37 1
  26   13   38 1
  27   14   39 1
  28   14   40 1
  29   15   16 ar
  30   15   20 ar
  31   16   17 ar
  32   16   21 1
  33   17   18 ar
  34   17   41 1
  35   18   19 ar
  36   18   42 1
  37   19   20 ar
  38   19   22 1
  39   20   43 1
  40   23   24 am
  41   23   44 1
  42   24   25 2
  43   24   26 am
  44   26   27 1
  45   26   28 1
  46   27   29 1
  47   27   45 1
  48   27   46 1
  49   28   29 1
  50   28   47 1
  51   28   48 1
  52   29   30 1
  53   29   49 1
  54   30   50 1

#	End of record

