#	Name: ASD01840528
#	Creating user name:	WinNT
#	Creation time:	15. 06. 2019 19:37

#	Modifying user name:	WinNT
#	Modification time:	15. 06. 2019 19:37

#	Program:	/corina/corina34_cracker 3.40 0067  02.08.2006

@<TRIPOS>MOLECULE
ASD01840528
  49   52    0    0    0
SMALL
NO_CHARGES


@<TRIPOS>ATOM
   1 C1             2.2304     0.3737     0.6544 C.3     
   2 C2             1.0897    -0.5501     0.3135 C.ar    
   3 C3             1.0405    -1.1629    -0.9108 C.ar    
   4 C4            -0.0374    -2.0113    -1.1798 C.ar    
   5 C5            -0.1721    -2.7108    -2.4651 C.2     
   6 O6             0.6590    -2.5709    -3.3422 O.2     
   7 N7            -1.2435    -3.5138    -2.6465 N.am    
   8 C8            -2.1634    -3.6717    -1.6819 C.2     
   9 O9            -3.1091    -4.4052    -1.8951 O.2     
  10 N10           -2.0847    -3.0549    -0.4908 N.am    
  11 C11           -1.0282    -2.2100    -0.2002 C.ar    
  12 N12           -0.9378    -1.5958     0.9668 N.ar    
  13 C13            0.0791    -0.7919     1.2448 C.ar    
  14 N14            0.1364    -0.1749     2.4824 N.3     
  15 C15           -0.9526     0.7980     2.6363 C.3     
  16 C16           -0.7740     1.5621     3.9503 C.3     
  17 C17           -0.7819     0.5703     5.1168 C.3     
  18 C18            0.3308    -0.4606     4.9075 C.3     
  19 C19            0.1201    -1.1660     3.5658 C.3     
  20 O20           -0.5586     1.2719     6.3416 O.3     
  21 C21           -1.1801     0.6690     7.4784 C.3     
  22 C22           -0.8759     1.5000     8.7265 C.3     
  23 C23            0.5022     2.1639     8.7575 C.3     
  24 C24           -2.0389     2.2548     9.3734 C.3     
  25 C25           -1.4568     1.0157    10.0565 C.3     
  26 H26            2.9960    -0.1796     1.1983 H       
  27 H27            2.6574     0.7779    -0.2634 H       
  28 H28            1.8630     1.1911     1.2750 H       
  29 H29            1.8124    -0.9950    -1.6474 H       
  30 H30           -1.3498    -3.9841    -3.4882 H       
  31 H31           -2.7765    -3.2033     0.1727 H       
  32 H32           -0.9332     1.4999     1.8026 H       
  33 H33           -1.9085     0.2743     2.6478 H       
  34 H34            0.1755     2.0971     3.9339 H       
  35 H35           -1.5911     2.2732     4.0717 H       
  36 H36           -1.7457     0.0629     5.1571 H       
  37 H37            1.2976     0.0426     4.9062 H       
  38 H38            0.3030    -1.1946     5.7129 H       
  39 H39           -0.8408    -1.6805     3.5730 H       
  40 H40            0.9187    -1.8907     3.4072 H       
  41 H41           -2.2582     0.6272     7.3236 H       
  42 H42           -0.7927    -0.3412     7.6111 H       
  43 H43            0.7869     2.4575     7.7471 H       
  44 H44            0.4660     3.0467     9.3958 H       
  45 H45            1.2356     1.4604     9.1517 H       
  46 H46           -1.8224     3.2248     9.8211 H       
  47 H47           -3.0208     2.1594     8.9097 H       
  48 H48           -2.0557     0.1051    10.0423 H       
  49 H49           -0.8574     1.1705    10.9536 H       
@<TRIPOS>BOND
   1    1    2 1
   2    1   26 1
   3    1   27 1
   4    1   28 1
   5    2   13 ar
   6    2    3 ar
   7    3    4 ar
   8    3   29 1
   9    4   11 ar
  10    4    5 1
  11    5    6 2
  12    5    7 am
  13    7    8 am
  14    7   30 1
  15    8    9 2
  16    8   10 am
  17   10   11 1
  18   10   31 1
  19   11   12 ar
  20   12   13 ar
  21   13   14 1
  22   14   19 1
  23   14   15 1
  24   15   16 1
  25   15   32 1
  26   15   33 1
  27   16   17 1
  28   16   34 1
  29   16   35 1
  30   17   18 1
  31   17   20 1
  32   17   36 1
  33   18   19 1
  34   18   37 1
  35   18   38 1
  36   19   39 1
  37   19   40 1
  38   20   21 1
  39   21   22 1
  40   21   41 1
  41   21   42 1
  42   22   25 1
  43   22   23 1
  44   22   24 1
  45   23   43 1
  46   23   44 1
  47   23   45 1
  48   24   25 1
  49   24   46 1
  50   24   47 1
  51   25   48 1
  52   25   49 1

#	End of record

