#	Name: ASD01000019
#	Creating user name:	WinNT
#	Creation time:	15. 06. 2019 18:54

#	Modifying user name:	WinNT
#	Modification time:	15. 06. 2019 18:54

#	Program:	/corina/corina34_cracker 3.40 0067  02.08.2006

@<TRIPOS>MOLECULE
ASD01000019
  36   37    0    0    0
SMALL
NO_CHARGES


@<TRIPOS>ATOM
   1 C1            -0.0177     1.3744     0.1867 C.ar    
   2 C2             0.0064    -0.0124     0.1966 C.ar    
   3 C3            -1.1603    -0.7241    -0.0064 C.ar    
   4 C4            -2.3517    -0.0546    -0.2198 C.ar    
   5 C5            -2.3779     1.3287    -0.2305 C.ar    
   6 C6            -1.2149     2.0440    -0.0218 C.ar    
   7 C7            -1.1347    -2.2309     0.0043 C.3     
   8 N8             0.1505    -2.6672    -0.5673 N.am    
   9 C9            -1.4521    -2.6936     1.4119 C.2     
  10 C10           -0.5405    -3.4684     2.0394 C.2     
  11 N11            0.6259    -3.8215     1.4255 N.am    
  12 C12            0.9571    -3.4416     0.1851 C.2     
  13 C13           -2.6611    -2.3265     2.0471 C.2     
  14 O14           -3.6932    -3.1949     2.0867 O.3     
  15 S15            2.4539    -3.9567    -0.4668 S.2     
  16 O16           -2.7706    -1.2275     2.5579 O.2     
  17 O17            1.1288     2.0764     0.3866 O.3     
  18 Br18          -3.9469    -1.0313    -0.4979 Br      
  19 C19           -4.9136    -2.7263     2.6639 C.3     
  20 C20           -5.9205    -3.8763     2.7312 C.3     
  21 C21           -0.8161    -3.9502     3.4405 C.3     
  22 H22            0.9366    -0.5355     0.3625 H       
  23 H23           -3.3090     1.8496    -0.3980 H       
  24 H24           -1.2358     3.1238    -0.0299 H       
  25 H25           -1.9309    -2.5822    -0.6520 H       
  26 H26            0.4101    -2.4038    -1.4640 H       
  27 H27            1.2503    -4.3793     1.9153 H       
  28 H28            1.6145     2.2760    -0.4254 H       
  29 H29           -4.7201    -2.3535     3.6697 H       
  30 H30           -5.3205    -1.9225     2.0505 H       
  31 H31           -6.1812    -4.1906     1.7206 H       
  32 H32           -5.4791    -4.7147     3.2700 H       
  33 H33           -6.8187    -3.5428     3.2510 H       
  34 H34           -1.4175    -4.8584     3.4007 H       
  35 H35            0.1272    -4.1608     3.9444 H       
  36 H36           -1.3574    -3.1798     3.9898 H       
@<TRIPOS>BOND
   1    1    2 ar
   2    1   17 1
   3    1    6 ar
   4    2    3 ar
   5    2   22 1
   6    3    4 ar
   7    3    7 1
   8    4    5 ar
   9    4   18 1
  10    5    6 ar
  11    5   23 1
  12    6   24 1
  13    7    8 1
  14    7    9 1
  15    7   25 1
  16    8   12 am
  17    8   26 1
  18    9   10 2
  19    9   13 1
  20   10   21 1
  21   10   11 1
  22   11   12 am
  23   11   27 1
  24   12   15 2
  25   13   14 1
  26   13   16 2
  27   14   19 1
  28   17   28 1
  29   19   20 1
  30   19   29 1
  31   19   30 1
  32   20   31 1
  33   20   32 1
  34   20   33 1
  35   21   34 1
  36   21   35 1
  37   21   36 1

#	End of record

