#	Name: ASD01903122
#	Creating user name:	WinNT
#	Creation time:	15. 06. 2019 19:54

#	Modifying user name:	WinNT
#	Modification time:	15. 06. 2019 19:54

#	Program:	/corina/corina34_cracker 3.40 0067  02.08.2006

@<TRIPOS>MOLECULE
ASD01903122
  48   51    0    0    0
SMALL
NO_CHARGES


@<TRIPOS>ATOM
   1 N1            -0.0426     1.3989    -0.0019 N.am    
   2 C2            -0.0171    -0.0043    -0.0067 C.ar    
   3 C3            -0.2417    -0.6991    -1.1887 C.ar    
   4 C4            -0.2166    -2.0804    -1.1931 C.ar    
   5 C5             0.0331    -2.7737    -0.0160 C.ar    
   6 C6             0.2576    -2.0781     1.1655 C.ar    
   7 C7             0.2380    -0.6979     1.1685 C.ar    
   8 C8             1.0489     2.1453    -0.2215 C.2     
   9 C9             0.6703     3.6036    -0.1456 C.3     
  10 C10           -0.8370     3.5816     0.1575 C.3     
  11 C11           -1.1608     2.1033     0.2170 C.2     
  12 O12            2.1609     1.7175    -0.4450 O.2     
  13 O13           -2.2564     1.6323     0.4349 O.2     
  14 C14            1.4265     4.2966     0.9822 C.3     
  15 C15            2.9264     4.2839     0.6759 C.3     
  16 C16            3.1806     5.0033    -0.6503 C.3     
  17 C17            2.4337     4.2838    -1.7752 C.3     
  18 C18            0.9319     4.2963    -1.4781 C.3     
  19 Cl19          -0.5544     0.1683    -2.6596 Cl      
  20 N20            0.0582    -4.1727    -0.0198 N.am    
  21 C21            0.5500    -4.8350    -1.0857 C.2     
  22 C22            0.6723    -6.3107    -1.0488 C.ar    
  23 O23            0.8931    -4.2213    -2.0770 O.2     
  24 N24            0.2959    -6.9754     0.0366 N.ar    
  25 C25            0.3877    -8.2854     0.1099 C.ar    
  26 C26            0.8844    -9.0245    -0.9515 C.ar    
  27 C27            1.2891    -8.3703    -2.1048 C.ar    
  28 C28            1.1762    -6.9900    -2.1561 C.ar    
  29 H29           -0.3915    -2.6208    -2.1116 H       
  30 H30            0.4517    -2.6173     2.0808 H       
  31 H31            0.4129    -0.1576     2.0871 H       
  32 H32           -1.0438     4.0624     1.1135 H       
  33 H33           -1.3973     4.0621    -0.6446 H       
  34 H34            1.0825     5.3271     1.0706 H       
  35 H35            1.2427     3.7709     1.9193 H       
  36 H36            3.4650     4.7934     1.4749 H       
  37 H37            3.2738     3.2533     0.6028 H       
  38 H38            2.8264     6.0317    -0.5792 H       
  39 H39            4.2493     5.0018    -0.8652 H       
  40 H40            2.6216     4.7933    -2.7203 H       
  41 H41            2.7825     3.2532    -1.8419 H       
  42 H42            0.4004     3.7704    -2.2713 H       
  43 H43            0.5803     5.3268    -1.4269 H       
  44 H44           -0.2784    -4.6660     0.7446 H       
  45 H45            0.0718    -8.7919     1.0100 H       
  46 H46            0.9559   -10.0998    -0.8810 H       
  47 H47            1.6797    -8.9240    -2.9458 H       
  48 H48            1.4816    -6.4479    -3.0388 H       
@<TRIPOS>BOND
   1    1    2 1
   2    1    8 am
   3    1   11 am
   4    2    3 ar
   5    2    7 ar
   6    3    4 ar
   7    3   19 1
   8    4    5 ar
   9    4   29 1
  10    5    6 ar
  11    5   20 1
  12    6    7 ar
  13    6   30 1
  14    7   31 1
  15    8    9 1
  16    8   12 2
  17    9   10 1
  18    9   14 1
  19    9   18 1
  20   10   11 1
  21   10   32 1
  22   10   33 1
  23   11   13 2
  24   14   15 1
  25   14   34 1
  26   14   35 1
  27   15   16 1
  28   15   36 1
  29   15   37 1
  30   16   17 1
  31   16   38 1
  32   16   39 1
  33   17   18 1
  34   17   40 1
  35   17   41 1
  36   18   42 1
  37   18   43 1
  38   20   21 am
  39   20   44 1
  40   21   22 1
  41   21   23 2
  42   22   24 ar
  43   22   28 ar
  44   24   25 ar
  45   25   26 ar
  46   25   45 1
  47   26   27 ar
  48   26   46 1
  49   27   28 ar
  50   27   47 1
  51   28   48 1

#	End of record

