#	Name: ASD01912000
#	Creating user name:	WinNT
#	Creation time:	15. 06. 2019 19:58

#	Modifying user name:	WinNT
#	Modification time:	15. 06. 2019 19:58

#	Program:	/corina/corina34_cracker 3.40 0067  02.08.2006

@<TRIPOS>MOLECULE
ASD01912000
  41   43    0    0    0
SMALL
NO_CHARGES


@<TRIPOS>ATOM
   1 C1            -1.4283     1.2133     1.7174 C.ar    
   2 C2            -1.3520    -0.1698     1.5717 C.ar    
   3 C3            -1.5142    -0.9621     2.7058 C.ar    
   4 N4            -1.7333    -0.3766     3.8713 N.ar    
   5 C5            -1.7987     0.9363     3.9674 C.ar    
   6 N6            -1.6505     1.7204     2.9185 N.ar    
   7 N7            -1.1191    -0.7475     0.3205 N.pl3   
   8 C8            -1.0193    -2.1357     0.1997 C.ar    
   9 C9             0.3002    -4.0931    -0.2384 C.ar    
  10 C10           -0.8121    -4.8891    -0.0423 C.ar    
  11 C11           -2.0360    -4.3107     0.2708 C.ar    
  12 C12           -2.1395    -2.9321     0.3916 C.ar    
  13 N13           -3.1611    -5.1171     0.4685 N.am    
  14 C14           -4.3820    -4.6686     0.1155 C.2     
  15 C15           -5.5847    -5.4785     0.4186 C.ar    
  16 O16           -4.4963    -3.5997    -0.4514 O.2     
  17 C17           -6.8438    -5.0095     0.0512 C.ar    
  18 C18            0.2009    -2.7206    -0.1184 C.ar    
  19 C19           -0.9797     0.1027    -0.8644 C.3     
  20 C20           -7.9599    -5.7787     0.3415 C.ar    
  21 C21           -7.7775    -6.9902     0.9893 C.ar    
  22 C22           -6.4952    -7.3947     1.3254 C.ar    
  23 N23           -5.4531    -6.6478     1.0332 N.ar    
  24 C24           -6.2919    -8.7113     2.0299 C.3     
  25 F25           -6.1146    -9.7249     1.0820 F       
  26 F26           -5.1587    -8.6331     2.8466 F       
  27 F27           -7.4137    -8.9982     2.8151 F       
  28 H28           -1.3035     1.8621     0.8631 H       
  29 H29           -1.4623    -2.0385     2.6344 H       
  30 H30           -1.9789     1.3827     4.9342 H       
  31 H31            1.2503    -4.5453    -0.4816 H       
  32 H32           -0.7311    -5.9619    -0.1369 H       
  33 H33           -3.0897    -2.4800     0.6349 H       
  34 H34           -3.0628    -5.9992     0.8597 H       
  35 H35           -6.9490    -4.0599    -0.4524 H       
  36 H36            1.0722    -2.1012    -0.2723 H       
  37 H37            0.0681     0.3724    -0.9968 H       
  38 H38           -1.3294    -0.4388    -1.7433 H       
  39 H39           -1.5741     1.0072    -0.7345 H       
  40 H40           -8.9491    -5.4413     0.0695 H       
  41 H41           -8.6264    -7.6129     1.2302 H       
@<TRIPOS>BOND
   1    1    2 ar
   2    1    6 ar
   3    1   28 1
   4    2    3 ar
   5    2    7 1
   6    3    4 ar
   7    3   29 1
   8    4    5 ar
   9    5    6 ar
  10    5   30 1
  11    7    8 1
  12    7   19 1
  13    8   18 ar
  14    8   12 ar
  15    9   10 ar
  16    9   18 ar
  17    9   31 1
  18   10   11 ar
  19   10   32 1
  20   11   12 ar
  21   11   13 1
  22   12   33 1
  23   13   14 am
  24   13   34 1
  25   14   15 1
  26   14   16 2
  27   15   17 ar
  28   15   23 ar
  29   17   20 ar
  30   17   35 1
  31   18   36 1
  32   19   37 1
  33   19   38 1
  34   19   39 1
  35   20   21 ar
  36   20   40 1
  37   21   22 ar
  38   21   41 1
  39   22   23 ar
  40   22   24 1
  41   24   25 1
  42   24   26 1
  43   24   27 1

#	End of record

