#	Name: ASD01420231
#	Creating user name:	WinNT
#	Creation time:	15. 06. 2019 19:20

#	Modifying user name:	WinNT
#	Modification time:	15. 06. 2019 19:20

#	Program:	/corina/corina34_cracker 3.40 0067  02.08.2006

@<TRIPOS>MOLECULE
ASD01420231
  52   56    0    0    0
SMALL
NO_CHARGES


@<TRIPOS>ATOM
   1 C1            -0.0169     1.3941     0.0097 C.ar    
   2 C2             0.0021    -0.0041     0.0020 C.ar    
   3 C3             1.2358    -0.6787    -0.0134 C.ar    
   4 C4             2.4198     0.0442    -0.0208 C.ar    
   5 C5             2.3826     1.4229    -0.0130 C.ar    
   6 C6             1.1683     2.0938     0.0021 C.ar    
   7 N7            -0.9708    -0.9481     0.0062 N.2     
   8 C8            -0.4271    -2.1411    -0.0054 C.2     
   9 N9             0.9373    -2.0282    -0.0178 N.pl3   
  10 C10           -1.1744    -3.4157    -0.0051 C.2     
  11 C11           -2.5816    -3.5543     0.0071 C.2     
  12 C12           -2.8664    -4.8795     0.0029 C.2     
  13 N13           -1.6893    -5.5585    -0.0114 N.pl3   
  14 N14           -0.6464    -4.6239    -0.0219 N.2     
  15 N15           -3.5166    -2.5066     0.0211 N.am    
  16 C16           -4.8361    -2.7810     0.0318 C.2     
  17 O17           -5.2170    -3.9360     0.0294 O.2     
  18 C18           -5.8183    -1.6804     0.0465 C.ar    
  19 C19           -6.2756    -1.1617     1.2627 C.ar    
  20 C20           -7.1960    -0.1306     1.2673 C.ar    
  21 C21           -7.6651     0.3882     0.0741 C.ar    
  22 C22           -7.2184    -0.1185    -1.1328 C.ar    
  23 C23           -6.2935    -1.1454    -1.1558 C.ar    
  24 F24           -5.8584    -1.6390    -2.3357 F       
  25 F25           -5.8193    -1.6677     2.4294 F       
  26 C26            1.1468     3.6006     0.0099 C.3     
  27 N27            1.1264     4.0972    -1.3724 N.3     
  28 C28            0.8670     5.5438    -1.4088 C.3     
  29 C29            0.9135     6.0288    -2.8602 C.3     
  30 O30           -0.0340     5.2892    -3.6353 O.3     
  31 C31            0.1893     3.8766    -3.6226 C.3     
  32 C32            0.1355     3.3698    -2.1789 C.3     
  33 H33           -0.9584     1.9232     0.0171 H       
  34 H34            3.3687    -0.4715    -0.0323 H       
  35 H35            3.3052     1.9842    -0.0188 H       
  36 H36            1.5752    -2.7588    -0.0281 H       
  37 H37           -3.8534    -5.3179     0.0097 H       
  38 H38           -1.5889    -6.5233    -0.0168 H       
  39 H39           -3.2128    -1.5854     0.0231 H       
  40 H40           -7.5501     0.2710     2.2052 H       
  41 H41           -8.3847     1.1934     0.0848 H       
  42 H42           -7.5902     0.2921    -2.0599 H       
  43 H43            0.2568     3.9486     0.5342 H       
  44 H44            2.0365     3.9740     0.5170 H       
  45 H45           -0.1177     5.7477    -0.9883 H       
  46 H46            1.6271     6.0646    -0.8265 H       
  47 H47            0.6654     7.0895    -2.8976 H       
  48 H48            1.9140     5.8739    -3.2638 H       
  49 H49           -0.5825     3.3809    -4.2114 H       
  50 H50            1.1688     3.6591    -4.0484 H       
  51 H51            0.3616     2.3037    -2.1588 H       
  52 H52           -0.8609     3.5390    -1.7707 H       
@<TRIPOS>BOND
   1    1    2 ar
   2    1    6 ar
   3    1   33 1
   4    2    3 ar
   5    2    7 1
   6    3    4 ar
   7    3    9 1
   8    4    5 ar
   9    4   34 1
  10    5    6 ar
  11    5   35 1
  12    6   26 1
  13    7    8 2
  14    8    9 1
  15    8   10 1
  16    9   36 1
  17   10   11 1
  18   10   14 2
  19   11   12 2
  20   11   15 1
  21   12   13 1
  22   12   37 1
  23   13   14 1
  24   13   38 1
  25   15   16 am
  26   15   39 1
  27   16   18 1
  28   16   17 2
  29   18   19 ar
  30   18   23 ar
  31   19   20 ar
  32   19   25 1
  33   20   21 ar
  34   20   40 1
  35   21   22 ar
  36   21   41 1
  37   22   23 ar
  38   22   42 1
  39   23   24 1
  40   26   27 1
  41   26   43 1
  42   26   44 1
  43   27   28 1
  44   27   32 1
  45   28   29 1
  46   28   45 1
  47   28   46 1
  48   29   30 1
  49   29   47 1
  50   29   48 1
  51   30   31 1
  52   31   32 1
  53   31   49 1
  54   31   50 1
  55   32   51 1
  56   32   52 1

#	End of record

