#	Name: ASD09116486
#	Creating user name:	WinNT
#	Creation time:	15. 06. 2019 21:21

#	Modifying user name:	WinNT
#	Modification time:	15. 06. 2019 21:21

#	Program:	/corina/corina34_cracker 3.40 0067  02.08.2006

@<TRIPOS>MOLECULE
ASD09116486
  71   77    0    0    0
SMALL
NO_CHARGES


@<TRIPOS>ATOM
   1 N1            -0.0296     1.4181     0.1446 N.2     
   2 N2            -0.0208     0.0191     0.2651 N.pl3   
   3 C3             1.2224     1.8077     0.1153 C.2     
   4 N4             2.0156     0.7340     0.2106 N.2     
   5 C5             1.2802    -0.3533     0.3017 C.2     
   6 N6             1.7526    -1.6470     0.4155 N.pl3   
   7 C7            -1.1334    -0.8213     0.3337 C.ar    
   8 N8             1.6572     3.1282     0.0030 N.pl3   
   9 C9             3.0221     3.4264     0.0973 C.ar    
  10 C10            3.5418     4.5220    -0.5796 C.ar    
  11 C11            3.8548     2.6297     0.8722 C.ar    
  12 C12            5.2023     2.9244     0.9650 C.ar    
  13 C13            5.7226     4.0183     0.2823 C.ar    
  14 C14            4.8881     4.8166    -0.4876 C.ar    
  15 N15           -1.0316    -2.0871    -0.0430 N.ar    
  16 N16           -2.0272    -2.8996    -0.0086 N.ar    
  17 C17           -3.2228    -2.5146     0.4079 C.ar    
  18 C18           -3.4196    -1.2017     0.8454 C.ar    
  19 C19           -2.3530    -0.3287     0.8052 C.ar    
  20 C20           -4.3845    -3.4336     0.3976 C.ar    
  21 C21           -5.5811    -3.0018    -0.1766 C.ar    
  22 C22           -5.6438    -1.6422    -0.8170 C.3     
  23 C23           -5.7426    -0.5371     0.2311 C.3     
  24 C24           -4.7617    -0.7861     1.3738 C.3     
  25 C25           -4.2979    -4.7061     0.9514 C.ar    
  26 C26           -5.4063    -5.5307     0.9465 C.ar    
  27 C27           -6.5962    -5.0912     0.3951 C.ar    
  28 C28           -6.6841    -3.8284    -0.1648 C.ar    
  29 N29            7.0885     4.3178     0.3758 N.3     
  30 C30            7.7281     4.2781    -0.9467 C.3     
  31 F31            6.0131     2.1502     1.7190 F       
  32 C32            7.7642     3.4086     1.3119 C.3     
  33 C33            9.2328     3.8178     1.4460 C.3     
  34 N34            9.8724     3.7781     0.1235 N.3     
  35 C35            9.1967     4.6873    -0.8126 C.3     
  36 C36           11.3041     4.0921     0.2215 C.3     
  37 C37           11.9831     3.8003    -1.1182 C.3     
  38 C38           13.4602     4.1740    -1.2578 C.3     
  39 C39           13.0502     2.7042    -1.1454 C.3     
  40 H40            2.7078    -1.8147     0.4334 H       
  41 H41            1.1289    -2.3873     0.4774 H       
  42 H42            1.0141     3.8401    -0.1404 H       
  43 H43            2.8930     5.1438    -1.1786 H       
  44 H44            3.4498     1.7805     1.4025 H       
  45 H45            5.2923     5.6662    -1.0178 H       
  46 H46           -2.4583     0.6993     1.1188 H       
  47 H47           -4.7453    -1.4877    -1.4144 H       
  48 H48           -6.5164    -1.5948    -1.4685 H       
  49 H49           -5.5144     0.4213    -0.2353 H       
  50 H50           -6.7571    -0.5093     0.6288 H       
  51 H51           -5.1533    -1.5740     2.0171 H       
  52 H52           -4.6501     0.1286     1.9560 H       
  53 H53           -3.3688    -5.0482     1.3828 H       
  54 H54           -5.3435    -6.5206     1.3737 H       
  55 H55           -7.4619    -5.7370     0.4018 H       
  56 H56           -7.6165    -3.4910    -0.5927 H       
  57 H57            7.6676     3.2671    -1.3497 H       
  58 H58            7.2180     4.9687    -1.6183 H       
  59 H59            7.2804     3.4653     2.2870 H       
  60 H60            7.7041     2.3877     0.9346 H       
  61 H61            9.2933     4.8288     1.8489 H       
  62 H62            9.7429     3.1272     2.1175 H       
  63 H63            9.6805     4.6306    -1.7877 H       
  64 H64            9.2568     5.7082    -0.4353 H       
  65 H65           11.4288     5.1460     0.4700 H       
  66 H66           11.7581     3.4790     1.0000 H       
  67 H67           11.3508     3.9096    -1.9993 H       
  68 H68           13.7998     4.5287    -2.2309 H       
  69 H69           13.9482     4.6277    -0.3952 H       
  70 H70           13.2686     2.1910    -0.2089 H       
  71 H71           13.1201     2.0920    -2.0446 H       
@<TRIPOS>BOND
   1    1    2 1
   2    1    3 2
   3    2    7 1
   4    2    5 1
   5    3    4 1
   6    3    8 1
   7    4    5 2
   8    5    6 1
   9    6   40 1
  10    6   41 1
  11    7   15 ar
  12    7   19 ar
  13    8    9 1
  14    8   42 1
  15    9   10 ar
  16    9   11 ar
  17   10   14 ar
  18   10   43 1
  19   11   12 ar
  20   11   44 1
  21   12   13 ar
  22   12   31 1
  23   13   14 ar
  24   13   29 1
  25   14   45 1
  26   15   16 ar
  27   16   17 ar
  28   17   18 ar
  29   17   20 1
  30   18   19 ar
  31   18   24 1
  32   19   46 1
  33   20   21 ar
  34   20   25 ar
  35   21   22 1
  36   21   28 ar
  37   22   23 1
  38   22   47 1
  39   22   48 1
  40   23   24 1
  41   23   49 1
  42   23   50 1
  43   24   51 1
  44   24   52 1
  45   25   26 ar
  46   25   53 1
  47   26   27 ar
  48   26   54 1
  49   27   28 ar
  50   27   55 1
  51   28   56 1
  52   29   30 1
  53   29   32 1
  54   30   35 1
  55   30   57 1
  56   30   58 1
  57   32   33 1
  58   32   59 1
  59   32   60 1
  60   33   34 1
  61   33   61 1
  62   33   62 1
  63   34   35 1
  64   34   36 1
  65   35   63 1
  66   35   64 1
  67   36   37 1
  68   36   65 1
  69   36   66 1
  70   37   38 1
  71   37   39 1
  72   37   67 1
  73   38   39 1
  74   38   68 1
  75   38   69 1
  76   39   70 1
  77   39   71 1

#	End of record

