#	Name: ASD02500814
#	Creating user name:	WinNT
#	Creation time:	15. 06. 2019 20:23

#	Modifying user name:	WinNT
#	Modification time:	15. 06. 2019 20:23

#	Program:	/corina/corina34_cracker 3.40 0067  02.08.2006

@<TRIPOS>MOLECULE
ASD02500814
  36   39    0    0    0
SMALL
NO_CHARGES


@<TRIPOS>ATOM
   1 C1            -0.0169     1.3937     0.0097 C.2     
   2 C2             0.0021    -0.0041     0.0020 C.2     
   3 C3            -1.2291    -0.6944     0.0101 C.2     
   4 N4            -2.3793     0.0088     0.0248 N.am    
   5 N5            -2.3709     1.4064     0.0318 N.2     
   6 C6            -1.2539     2.0777     0.0303 C.2     
   7 C7             1.3805     1.8290    -0.0013 C.2     
   8 C8             2.1611     0.6949    -0.0148 C.2     
   9 N9             1.3130    -0.4133    -0.0127 N.pl3   
  10 S10            2.4075     3.2578    -0.0034 S.3     
  11 C11            3.8556     2.2647    -0.0226 C.2     
  12 C12            3.5327     0.9776    -0.0268 C.2     
  13 O13           -1.2522    -1.9149     0.0033 O.2     
  14 C14           -3.6593    -0.7039     0.0332 C.3     
  15 C15           -4.0846    -0.9559     1.4568 C.ar    
  16 C16           -4.6821     0.0548     2.1902 C.ar    
  17 C17           -5.0724    -0.1782     3.4983 C.ar    
  18 C18           -4.8651    -1.4190     4.0700 C.ar    
  19 C19           -4.2682    -2.4277     3.3365 C.ar    
  20 C20           -3.8834    -2.1980     2.0289 C.ar    
  21 F21           -4.8839     1.2677     1.6304 F       
  22 C22            1.7563    -1.8096    -0.0234 C.3     
  23 N23            5.2401     2.7890    -0.0336 N.pl3   
  24 O24            6.1831     2.0182    -0.0471 O.2     
  25 O25            5.4361     3.9911    -0.0291 O.2     
  26 H26           -1.2734     3.1575     0.0358 H       
  27 H27            4.2800     0.1978    -0.0377 H       
  28 H28           -4.4145    -0.1003    -0.4702 H       
  29 H29           -3.5487    -1.6555    -0.4868 H       
  30 H30           -5.5383     0.6096     4.0715 H       
  31 H31           -5.1690    -1.6008     5.0902 H       
  32 H32           -4.1062    -3.3970     3.7843 H       
  33 H33           -3.4173    -2.9866     1.4569 H       
  34 H34            1.8759    -2.1608     1.0015 H       
  35 H35            1.0133    -2.4228    -0.5333 H       
  36 H36            2.7097    -1.8841    -0.5465 H       
@<TRIPOS>BOND
   1    1    2 2
   2    1    7 1
   3    1    6 1
   4    2    3 1
   5    2    9 1
   6    3    4 am
   7    3   13 2
   8    4    5 1
   9    4   14 1
  10    5    6 2
  11    6   26 1
  12    7    8 2
  13    7   10 1
  14    8    9 1
  15    8   12 1
  16    9   22 1
  17   10   11 1
  18   11   12 2
  19   11   23 1
  20   12   27 1
  21   14   15 1
  22   14   28 1
  23   14   29 1
  24   15   16 ar
  25   15   20 ar
  26   16   17 ar
  27   16   21 1
  28   17   18 ar
  29   17   30 1
  30   18   19 ar
  31   18   31 1
  32   19   20 ar
  33   19   32 1
  34   20   33 1
  35   22   34 1
  36   22   35 1
  37   22   36 1
  38   23   24 2
  39   23   25 2

#	End of record

