#	Name: ASD01910256
#	Creating user name:	WinNT
#	Creation time:	15. 06. 2019 19:55

#	Modifying user name:	WinNT
#	Modification time:	15. 06. 2019 19:55

#	Program:	/corina/corina34_cracker 3.40 0067  02.08.2006

@<TRIPOS>MOLECULE
ASD01910256
  43   46    0    0    0
SMALL
NO_CHARGES


@<TRIPOS>ATOM
   1 C1             0.6233     0.5056     0.4139 C.2     
   2 C2             1.8008     1.4460     0.3994 C.3     
   3 C3             2.1177     1.8456    -1.0435 C.3     
   4 C4             3.3337     2.7747    -1.0620 C.3     
   5 C5             3.0130     4.0448    -0.2679 C.3     
   6 N6             2.5674     3.6609     1.0785 N.am    
   7 C7             1.4627     2.7011     1.2101 C.3     
   8 C8             3.1606     4.1792     2.1720 C.2     
   9 O9             2.7385     3.9073     3.2791 O.2     
  10 N10            0.6126    -0.7206     0.8741 N.2     
  11 C11           -0.6476    -1.1704     0.6798 C.2     
  12 N12           -1.3215    -0.2006     0.1185 N.2     
  13 O13           -0.6080     0.7681    -0.0353 O.3     
  14 C14           -1.1685    -2.5136     1.0367 C.ar    
  15 C15           -0.3381    -3.4589     1.6339 C.ar    
  16 N16           -0.7990    -4.6517     1.9509 N.ar    
  17 C17           -2.0504    -4.9983     1.7200 C.ar    
  18 C18           -2.9374    -4.1157     1.1306 C.ar    
  19 C19           -2.5018    -2.8483     0.7842 C.ar    
  20 C20            4.3239     5.0779     2.0253 C.ar    
  21 C21            4.2625     6.1668     1.1531 C.ar    
  22 C22            5.3508     7.0021     1.0200 C.ar    
  23 C23            6.5051     6.7628     1.7501 C.ar    
  24 C24            6.5715     5.6827     2.6171 C.ar    
  25 C25            5.4869     4.8448     2.7625 C.ar    
  26 F26            7.5689     7.5846     1.6159 F       
  27 H27            2.6670     0.9511     0.8385 H       
  28 H28            2.3346     0.9519    -1.6286 H       
  29 H29            1.2597     2.3619    -1.4741 H       
  30 H30            4.1857     2.2678    -0.6090 H       
  31 H31            3.5731     3.0401    -2.0918 H       
  32 H32            3.9064     4.6650    -0.1941 H       
  33 H33            2.2209     4.5998    -0.7706 H       
  34 H34            0.5442     3.1465     0.8280 H       
  35 H35            1.3332     2.4347     2.2591 H       
  36 H36            0.6932    -3.2120     1.8387 H       
  37 H37           -2.3878    -5.9867     1.9951 H       
  38 H38           -3.9599    -4.4108     0.9465 H       
  39 H39           -3.1730    -2.1389     0.3231 H       
  40 H40            3.3641     6.3540     0.5838 H       
  41 H41            5.3046     7.8444     0.3456 H       
  42 H42            7.4731     5.5006     3.1831 H       
  43 H43            5.5395     4.0040     3.4383 H       
@<TRIPOS>BOND
   1    1   10 2
   2    1    2 1
   3    1   13 1
   4    2    3 1
   5    2    7 1
   6    2   27 1
   7    3    4 1
   8    3   28 1
   9    3   29 1
  10    4    5 1
  11    4   30 1
  12    4   31 1
  13    5    6 1
  14    5   32 1
  15    5   33 1
  16    6    7 1
  17    6    8 am
  18    7   34 1
  19    7   35 1
  20    8    9 2
  21    8   20 1
  22   10   11 1
  23   11   12 2
  24   11   14 1
  25   12   13 1
  26   14   15 ar
  27   14   19 ar
  28   15   16 ar
  29   15   36 1
  30   16   17 ar
  31   17   18 ar
  32   17   37 1
  33   18   19 ar
  34   18   38 1
  35   19   39 1
  36   20   21 ar
  37   20   25 ar
  38   21   22 ar
  39   21   40 1
  40   22   23 ar
  41   22   41 1
  42   23   24 ar
  43   23   26 1
  44   24   25 ar
  45   24   42 1
  46   25   43 1

#	End of record

