#	Name: ASD00069212
#	Creating user name:	WinNT
#	Creation time:	15. 06. 2019 18:29

#	Modifying user name:	WinNT
#	Modification time:	15. 06. 2019 18:29

#	Program:	/corina/corina34_cracker 3.40 0067  02.08.2006

@<TRIPOS>MOLECULE
ASD00069212
  92   97    0    0    0
SMALL
NO_CHARGES


@<TRIPOS>ATOM
   1 N1            -0.6795     1.1902     0.2393 N.3     
   2 C2            -0.5867    -0.2754     0.2386 C.3     
   3 C3             0.0375    -0.7476    -1.0765 C.3     
   4 C4             1.4303    -0.1293    -1.2257 C.3     
   5 C5             1.3111     1.3964    -1.1733 C.3     
   6 C6             0.6500     1.8065     0.1446 C.3     
   7 C7             0.1525    -2.2502    -1.0678 C.2     
   8 O8            -0.2274    -2.8819    -0.1047 O.2     
   9 N9             0.6774    -2.8921    -2.1303 N.am    
  10 C10            0.5105     3.3294     0.1927 C.3     
  11 C11            0.7891    -4.3528    -2.1219 C.3     
  12 C12            0.8032    -4.8715    -3.5612 C.3     
  13 C13            0.9198    -6.3970    -3.5524 C.3     
  14 C14            2.2166    -6.8053    -2.8505 C.3     
  15 C15            2.2025    -6.2866    -1.4112 C.3     
  16 C16            2.0859    -4.7610    -1.4200 C.3     
  17 C17           -3.0892     2.8558     2.2917 C.ar    
  18 N18           -2.4332     2.4173     1.2274 N.ar    
  19 C19           -1.3589     1.6442     1.3587 C.ar    
  20 C20           -0.9256     1.2964     2.6370 C.ar    
  21 C21           -1.6408     1.7763     3.7320 C.ar    
  22 N22           -2.7086     2.5471     3.5211 N.ar    
  23 N23           -4.1992     3.6630     2.1132 N.pl3   
  24 C24           -4.9391     4.1587     3.2764 C.3     
  25 C25           -0.1091     0.5914     6.7619 C.2     
  26 N26           -0.1719     0.6745     5.4524 N.2     
  27 C27           -1.2209     1.4350     5.1121 C.2     
  28 C28           -1.8396     1.8439     6.2730 C.2     
  29 N29           -1.1392     1.3128     7.2990 N.pl3   
  30 C30            0.9022    -0.1614     7.5268 C.2     
  31 N31            1.8692    -0.8407     6.8789 N.am    
  32 O32            0.8637    -0.1691     8.7424 O.2     
  33 C33            2.8904    -1.4676     7.6038 C.ar    
  34 C34            3.4690    -2.6417     7.1236 C.ar    
  35 C35            4.4811    -3.2581     7.8473 C.ar    
  36 C36            4.9119    -2.7061     9.0414 C.ar    
  37 C37            4.3370    -1.5416     9.5161 C.ar    
  38 C38            3.3329    -0.9188     8.7986 C.ar    
  39 F39            5.0446    -4.3963     7.3866 F       
  40 O40            2.9641    -5.1231     3.8713 O.3     
  41 C41            1.8804    -5.0494     4.8017 C.3     
  42 C42            2.3969    -4.5061     6.1366 C.3     
  43 N43            3.0304    -3.1980     5.9152 N.3     
  44 C44            4.1376    -3.3113     4.9547 C.3     
  45 C45            3.6036    -3.8665     3.6317 C.3     
  46 C46            1.2916    -6.4458     5.0119 C.3     
  47 N47            0.8010    -6.9685     3.7297 N.3     
  48 H48            0.0349    -0.6003     1.0730 H       
  49 H49           -1.5842    -0.7025     0.3411 H       
  50 H50           -0.5907    -0.4350    -1.9105 H       
  51 H51            2.0704    -0.4728    -0.4131 H       
  52 H52            1.8612    -0.4283    -2.1813 H       
  53 H53            2.3041     1.8414    -1.2362 H       
  54 H54            0.7029     1.7428    -2.0088 H       
  55 H55            1.2657     1.4718     0.9794 H       
  56 H56            0.9812    -2.3868    -2.9006 H       
  57 H57            0.0405     3.6217     1.1317 H       
  58 H58            1.4973     3.7870     0.1224 H       
  59 H59           -0.1056     3.6643    -0.6418 H       
  60 H60           -0.0616    -4.7792    -1.5903 H       
  61 H61           -0.1207    -4.5806    -4.0613 H       
  62 H62            1.6538    -4.4451    -4.0928 H       
  63 H63            0.0691    -6.8234    -3.0208 H       
  64 H64            0.9298    -6.7666    -4.5778 H       
  65 H65            2.2997    -7.8921    -2.8443 H       
  66 H66            3.0673    -6.3789    -3.3821 H       
  67 H67            1.3519    -6.7130    -0.8796 H       
  68 H68            3.1264    -6.5774    -0.9112 H       
  69 H69            2.9366    -4.3346    -1.9516 H       
  70 H70            2.0759    -4.3915    -0.3946 H       
  71 H71           -0.0568     0.6698     2.7752 H       
  72 H72           -4.4872     3.9005     1.2179 H       
  73 H73           -4.2758     4.7573     3.9008 H       
  74 H74           -5.7746     4.7730     2.9407 H       
  75 H75           -5.3173     3.3147     3.8531 H       
  76 H76           -2.7169     2.4691     6.3485 H       
  77 H77           -1.3316     1.4230     8.2433 H       
  78 H78            1.8578    -0.8955     5.9105 H       
  79 H79            5.6989    -3.1863     9.6038 H       
  80 H80            4.6764    -1.1150    10.4484 H       
  81 H81            2.8898    -0.0068     9.1704 H       
  82 H82            1.1103    -4.3840     4.4114 H       
  83 H83            1.5641    -4.3944     6.8308 H       
  84 H84            3.1283    -5.1988     6.5529 H       
  85 H85            4.5754    -2.3274     4.7863 H       
  86 H86            4.8968    -3.9849     5.3522 H       
  87 H87            4.4305    -4.0059     2.9353 H       
  88 H88            2.8836    -3.1668     3.2074 H       
  89 H89            2.0621    -7.1097     5.4039 H       
  90 H90            0.4658    -6.3890     5.7210 H       
  91 H91            1.5336    -6.9704     3.0359 H       
  92 H92            0.4070    -7.8906     3.8421 H       
@<TRIPOS>BOND
   1    1    2 1
   2    1    6 1
   3    1   19 1
   4    2    3 1
   5    2   48 1
   6    2   49 1
   7    3    4 1
   8    3    7 1
   9    3   50 1
  10    4    5 1
  11    4   51 1
  12    4   52 1
  13    5    6 1
  14    5   53 1
  15    5   54 1
  16    6   10 1
  17    6   55 1
  18    7    8 2
  19    7    9 am
  20    9   11 1
  21    9   56 1
  22   10   57 1
  23   10   58 1
  24   10   59 1
  25   11   12 1
  26   11   16 1
  27   11   60 1
  28   12   13 1
  29   12   61 1
  30   12   62 1
  31   13   14 1
  32   13   63 1
  33   13   64 1
  34   14   15 1
  35   14   65 1
  36   14   66 1
  37   15   16 1
  38   15   67 1
  39   15   68 1
  40   16   69 1
  41   16   70 1
  42   17   18 ar
  43   17   22 ar
  44   17   23 1
  45   18   19 ar
  46   19   20 ar
  47   20   21 ar
  48   20   71 1
  49   21   22 ar
  50   21   27 1
  51   23   24 1
  52   23   72 1
  53   24   73 1
  54   24   74 1
  55   24   75 1
  56   25   26 2
  57   25   29 1
  58   25   30 1
  59   26   27 1
  60   27   28 2
  61   28   29 1
  62   28   76 1
  63   29   77 1
  64   30   31 am
  65   30   32 2
  66   31   33 1
  67   31   78 1
  68   33   34 ar
  69   33   38 ar
  70   34   35 ar
  71   34   43 1
  72   35   36 ar
  73   35   39 1
  74   36   37 ar
  75   36   79 1
  76   37   38 ar
  77   37   80 1
  78   38   81 1
  79   40   41 1
  80   40   45 1
  81   41   42 1
  82   41   46 1
  83   41   82 1
  84   42   43 1
  85   42   83 1
  86   42   84 1
  87   43   44 1
  88   44   45 1
  89   44   85 1
  90   44   86 1
  91   45   87 1
  92   45   88 1
  93   46   47 1
  94   46   89 1
  95   46   90 1
  96   47   91 1
  97   47   92 1

#	End of record

