#	Name: ASD02198285
#	Creating user name:	WinNT
#	Creation time:	15. 06. 2019 20:19

#	Modifying user name:	WinNT
#	Modification time:	15. 06. 2019 20:19

#	Program:	/corina/corina34_cracker 3.40 0067  02.08.2006

@<TRIPOS>MOLECULE
ASD02198285
  43   46    0    0    0
SMALL
NO_CHARGES


@<TRIPOS>ATOM
   1 C1            -0.0167     1.3799     0.0096 C.2     
   2 C2             0.0021    -0.0041     0.0020 C.2     
   3 S3             1.6544     1.9377    -0.0033 S.3     
   4 C4             2.2112     0.3224    -0.0173 C.2     
   5 N5             1.2119    -0.5125    -0.0123 N.2     
   6 N6            -1.1462    -0.7784     0.0088 N.pl3   
   7 C7            -1.1641     2.1948     0.0197 C.2     
   8 O8            -2.2731     1.6867     0.0225 O.2     
   9 C9            -1.0256     3.6646     0.0270 C.2     
  10 N10            3.5365    -0.0463    -0.0324 N.pl3   
  11 C11            3.9020    -1.4650    -0.0434 C.3     
  12 C12           -2.0378     4.5828     0.0370 C.2     
  13 C13           -1.3616     5.8327     0.0405 C.2     
  14 N14           -0.0808     5.5582     0.0326 N.2     
  15 O15            0.1229     4.3668     0.0310 O.3     
  16 C16           -1.9830     7.1807     0.0509 C.ar    
  17 C17           -1.1808     8.3200     0.0531 C.ar    
  18 C18           -3.3702     7.3108     0.0527 C.ar    
  19 C19           -3.9432     8.5661     0.0624 C.ar    
  20 C20           -3.1419     9.6952     0.0699 C.ar    
  21 C21           -1.7631     9.5710     0.0628 C.ar    
  22 C22            5.2961    -1.6452    -0.6692 C.3     
  23 C23            6.1878    -2.2814     0.4171 C.3     
  24 C24            5.1866    -2.9869     1.3652 C.3     
  25 C25            3.9951    -1.9980     1.4012 C.3     
  26 Cl26          -3.8686    11.2717     0.0815 Cl      
  27 H27           -2.0179    -0.3531     0.0194 H       
  28 H28           -1.0787    -1.7460     0.0030 H       
  29 H29            4.2289     0.6329    -0.0357 H       
  30 H30            3.1635    -2.0361    -0.6061 H       
  31 H31           -3.1024     4.4010     0.0408 H       
  32 H32           -0.1051     8.2241     0.0475 H       
  33 H33           -3.9960     6.4307     0.0461 H       
  34 H34           -5.0183     8.6680     0.0638 H       
  35 H35           -1.1421    10.4546     0.0690 H       
  36 H36            5.2344    -2.3045    -1.5350 H       
  37 H37            5.7008    -0.6772    -0.9646 H       
  38 H38            6.8698    -3.0072    -0.0260 H       
  39 H39            6.7436    -1.5122     0.9532 H       
  40 H40            4.8781    -3.9486     0.9550 H       
  41 H41            5.6168    -3.1099     2.3591 H       
  42 H42            4.1967    -1.1829     2.0963 H       
  43 H43            3.0768    -2.5168     1.6763 H       
@<TRIPOS>BOND
   1    1    2 2
   2    1    3 1
   3    1    7 1
   4    2    6 1
   5    2    5 1
   6    3    4 1
   7    4    5 2
   8    4   10 1
   9    6   27 1
  10    6   28 1
  11    7    8 2
  12    7    9 1
  13    9   12 2
  14    9   15 1
  15   10   11 1
  16   10   29 1
  17   11   22 1
  18   11   25 1
  19   11   30 1
  20   12   13 1
  21   12   31 1
  22   13   14 2
  23   13   16 1
  24   14   15 1
  25   16   17 ar
  26   16   18 ar
  27   17   21 ar
  28   17   32 1
  29   18   19 ar
  30   18   33 1
  31   19   20 ar
  32   19   34 1
  33   20   21 ar
  34   20   26 1
  35   21   35 1
  36   22   23 1
  37   22   36 1
  38   22   37 1
  39   23   24 1
  40   23   38 1
  41   23   39 1
  42   24   25 1
  43   24   40 1
  44   24   41 1
  45   25   42 1
  46   25   43 1

#	End of record

