#	Name: ASD03731606
#	Creating user name:	WinNT
#	Creation time:	15. 06. 2019 20:46

#	Modifying user name:	WinNT
#	Modification time:	15. 06. 2019 20:46

#	Program:	/corina/corina34_cracker 3.40 0067  02.08.2006

@<TRIPOS>MOLECULE
ASD03731606
  37   38    0    0    0
SMALL
NO_CHARGES


@<TRIPOS>ATOM
   1 C1            -0.1359     1.4672     0.0333 C.2     
   2 C2            -0.0849    -0.0063     0.0191 C.ar    
   3 C3             1.1402    -0.6649    -0.1384 C.ar    
   4 C4             1.1828    -2.0446    -0.1505 C.ar    
   5 C5             0.0130    -2.7784    -0.0068 C.ar    
   6 C6            -1.2079    -2.1270     0.1497 C.ar    
   7 C7            -1.2595    -0.7501     0.1688 C.ar    
   8 O8             0.8873     2.1122    -0.0920 O.2     
   9 N9            -1.3173     2.0992     0.1795 N.am    
  10 S10           -1.3746     3.7541     0.1954 S.o2    
  11 O11           -2.7497     4.0553     0.3892 O.2     
  12 O12           -0.3996     4.1293     1.1587 O.2     
  13 C13           -0.8447     4.2414    -1.4697 C.3     
  14 F14           -2.3431    -2.8462     0.2887 F       
  15 F15            2.2789     0.0485    -0.2788 F       
  16 O16            0.0593    -4.1349    -0.0193 O.3     
  17 C17           -0.1523    -4.7699    -1.2027 C.ar    
  18 C18           -0.0462    -6.1560    -1.2794 C.ar    
  19 C19           -0.2631    -6.7988    -2.4870 C.ar    
  20 C20           -0.5839    -6.0643    -3.6138 C.ar    
  21 C21           -0.6890    -4.6871    -3.5385 C.ar    
  22 C22           -0.4796    -4.0395    -2.3337 C.ar    
  23 O23            0.2703    -6.8774    -0.1707 O.3     
  24 C24            0.3619    -8.2952    -0.3236 C.3     
  25 Cl25          -1.0915    -3.7701    -4.9565 Cl      
  26 H26            2.1274    -2.5539    -0.2724 H       
  27 H27           -2.2063    -0.2461     0.2947 H       
  28 H28           -2.1340     1.5847     0.2754 H       
  29 H29           -1.5270     3.8177    -2.2066 H       
  30 H30           -0.8527     5.3284    -1.5499 H       
  31 H31            0.1639     3.8709    -1.6530 H       
  32 H32           -0.1812    -7.8740    -2.5486 H       
  33 H33           -0.7523    -6.5669    -4.5548 H       
  34 H34           -0.5670    -2.9646    -2.2760 H       
  35 H35           -0.5968    -8.6866    -0.6639 H       
  36 H36            1.1323    -8.5325    -1.0572 H       
  37 H37            0.6200    -8.7479     0.6338 H       
@<TRIPOS>BOND
   1    1    2 1
   2    1    8 2
   3    1    9 am
   4    2    3 ar
   5    2    7 ar
   6    3    4 ar
   7    3   15 1
   8    4    5 ar
   9    4   26 1
  10    5    6 ar
  11    5   16 1
  12    6    7 ar
  13    6   14 1
  14    7   27 1
  15    9   10 am
  16    9   28 1
  17   10   11 2
  18   10   12 2
  19   10   13 1
  20   13   29 1
  21   13   30 1
  22   13   31 1
  23   16   17 1
  24   17   18 ar
  25   17   22 ar
  26   18   19 ar
  27   18   23 1
  28   19   20 ar
  29   19   32 1
  30   20   21 ar
  31   20   33 1
  32   21   22 ar
  33   21   25 1
  34   22   34 1
  35   23   24 1
  36   24   35 1
  37   24   36 1
  38   24   37 1

#	End of record

