#	Name: ASD01230434
#	Creating user name:	WinNT
#	Creation time:	15. 06. 2019 19:14

#	Modifying user name:	WinNT
#	Modification time:	15. 06. 2019 19:14

#	Program:	/corina/corina34_cracker 3.40 0067  02.08.2006

@<TRIPOS>MOLECULE
ASD01230434
  43   45    0    0    0
SMALL
NO_CHARGES


@<TRIPOS>ATOM
   1 S1            -0.0204     1.6504     0.0111 S.o2    
   2 N2             0.0021    -0.0041     0.0020 N.am    
   3 C3             1.0230    -0.6873    -0.4557 C.2     
   4 N4             2.1689    -0.1518    -0.9712 N.pl3   
   5 C5             2.3935     1.2854    -1.1472 C.3     
   6 C6             1.7501     2.0749    -0.0035 C.3     
   7 C7             0.8952    -2.1590    -0.3951 C.2     
   8 C8             1.9454    -2.9419    -0.8226 C.2     
   9 C9             3.1046    -2.3189    -1.3055 C.2     
  10 C10            3.1912    -0.9791    -1.3650 C.2     
  11 C11           -0.3451    -2.7835     0.1187 C.ar    
  12 C12           -0.3146    -3.5356     1.2936 C.ar    
  13 C13           -1.4717    -4.1153     1.7693 C.ar    
  14 C14           -2.6661    -3.9517     1.0806 C.ar    
  15 C15           -2.7004    -3.2040    -0.0888 C.ar    
  16 C16           -1.5484    -2.6165    -0.5675 C.ar    
  17 O17           -3.8044    -4.5252     1.5520 O.3     
  18 C18           -4.9978    -4.3167     0.7942 C.3     
  19 C19           -6.1659    -5.0328     1.4751 C.3     
  20 C20           -6.4340    -4.3899     2.8373 C.3     
  21 C21           -7.4159    -4.9149     0.6007 C.3     
  22 O22           -0.6346     2.0065    -1.2198 O.2     
  23 O23           -0.6110     1.9932     1.2573 O.2     
  24 H24            3.4654     1.4826    -1.1617 H       
  25 H25            1.9572     1.6041    -2.0939 H       
  26 H26            1.8743     3.1442    -0.1745 H       
  27 H27            2.2074     1.7939     0.9452 H       
  28 H28            1.8766    -4.0190    -0.7858 H       
  29 H29            3.9378    -2.9227    -1.6334 H       
  30 H30            4.1024    -0.5350    -1.7377 H       
  31 H31            0.6143    -3.6639     1.8295 H       
  32 H32           -1.4488    -4.6976     2.6786 H       
  33 H33           -3.6313    -3.0789    -0.6219 H       
  34 H34           -1.5766    -2.0316    -1.4750 H       
  35 H35           -5.2099    -3.2491     0.7367 H       
  36 H36           -4.8639    -4.7152    -0.2115 H       
  37 H37           -5.9167    -6.0850     1.6126 H       
  38 H38           -7.2662    -4.9001     3.3224 H       
  39 H39           -5.5435    -4.4740     3.4603 H       
  40 H40           -6.6832    -3.3378     2.6998 H       
  41 H41           -7.2249    -5.3729    -0.3698 H       
  42 H42           -8.2481    -5.4250     1.0857 H       
  43 H43           -7.6652    -3.8627     0.4631 H       
@<TRIPOS>BOND
   1    1    2 am
   2    1    6 1
   3    1   22 2
   4    1   23 2
   5    2    3 2
   6    3    4 1
   7    3    7 1
   8    4    5 1
   9    4   10 1
  10    5    6 1
  11    5   24 1
  12    5   25 1
  13    6   26 1
  14    6   27 1
  15    7    8 2
  16    7   11 1
  17    8    9 1
  18    8   28 1
  19    9   10 2
  20    9   29 1
  21   10   30 1
  22   11   12 ar
  23   11   16 ar
  24   12   13 ar
  25   12   31 1
  26   13   14 ar
  27   13   32 1
  28   14   15 ar
  29   14   17 1
  30   15   16 ar
  31   15   33 1
  32   16   34 1
  33   17   18 1
  34   18   19 1
  35   18   35 1
  36   18   36 1
  37   19   20 1
  38   19   21 1
  39   19   37 1
  40   20   38 1
  41   20   39 1
  42   20   40 1
  43   21   41 1
  44   21   42 1
  45   21   43 1

#	End of record

