#	Name: ASD02500274
#	Creating user name:	WinNT
#	Creation time:	15. 06. 2019 20:22

#	Modifying user name:	WinNT
#	Modification time:	15. 06. 2019 20:22

#	Program:	/corina/corina34_cracker 3.40 0067  02.08.2006

@<TRIPOS>MOLECULE
ASD02500274
  63   67    0    0    0
SMALL
NO_CHARGES


@<TRIPOS>ATOM
   1 N1            -5.2078     4.9324     0.7566 N.ar    
   2 C2            -6.4168     5.4073     0.5805 C.ar    
   3 C3            -7.4872     5.0004     1.3742 C.ar    
   4 C4            -7.2900     4.0828     2.3664 C.ar    
   5 C5            -5.9903     3.5746     2.5523 C.ar    
   6 C6            -5.7110     2.6293     3.5520 C.ar    
   7 C7            -4.4405     2.1622     3.7002 C.ar    
   8 C8            -3.4130     2.6103     2.8729 C.ar    
   9 C9            -3.6484     3.5261     1.8939 C.ar    
  10 C10           -4.9468     4.0319     1.7096 C.ar    
  11 S11           -2.3303     4.0761     0.8620 S.o2    
  12 O12           -2.3724     5.4964     0.8802 O.2     
  13 O13           -1.1839     3.3276     1.2423 O.2     
  14 N14           -2.6959     3.6173    -0.6866 N.am    
  15 C15           -2.7141     2.2667    -1.0269 C.ar    
  16 C16           -2.3333     1.8657    -2.3092 C.ar    
  17 C17           -2.3510     0.5279    -2.6471 C.ar    
  18 C18           -2.7508    -0.4236    -1.7034 C.ar    
  19 C19           -3.1307    -0.0164    -0.4220 C.ar    
  20 C20           -3.1058     1.3197    -0.0878 C.ar    
  21 O21           -1.9454     2.7936    -3.2250 O.3     
  22 C22           -1.5691     2.3123    -4.5168 C.3     
  23 C23           -2.7718    -1.8548    -2.0604 C.2     
  24 O24           -3.2104    -2.2060    -3.1388 O.2     
  25 N25           -2.3047    -2.7731    -1.1914 N.am    
  26 C26           -2.2305    -4.1912    -1.5698 C.3     
  27 C27           -0.7906    -4.6783    -1.3655 C.3     
  28 N28           -0.3460    -4.2792    -0.0227 N.am    
  29 C29           -0.4202    -2.8610     0.3556 C.3     
  30 C30           -1.8549    -2.3732     0.1493 C.3     
  31 C31            0.1210    -5.1975     0.8463 C.2     
  32 C32            0.6634    -4.7696     2.1534 C.ar    
  33 C33            1.3707    -3.5671     2.2712 C.ar    
  34 C34            1.8575    -3.2118     3.5179 C.ar    
  35 C35            1.6311    -4.0494     4.5971 C.ar    
  36 N36            0.9612    -5.1768     4.4548 N.ar    
  37 C37            0.4739    -5.5545     3.2912 C.ar    
  38 O38            0.0963    -6.3774     0.5554 O.2     
  39 Cl39           2.7425    -1.7328     3.7255 Cl      
  40 H40           -6.5877     6.1336    -0.2003 H       
  41 H41           -8.4719     5.4104     1.2053 H       
  42 H42           -8.1082     3.7564     2.9913 H       
  43 H43           -6.4990     2.2749     4.1999 H       
  44 H44           -4.2265     1.4350     4.4695 H       
  45 H45           -2.4135     2.2252     3.0110 H       
  46 H46           -2.8973     4.2891    -1.3567 H       
  47 H47           -2.0571     0.2164    -3.6386 H       
  48 H48           -3.4400    -0.7499     0.3079 H       
  49 H49           -3.3956     1.6325     0.9045 H       
  50 H50           -2.4115     1.7888    -4.9691 H       
  51 H51           -1.2824     3.1531    -5.1485 H       
  52 H52           -0.7265     1.6279    -4.4184 H       
  53 H53           -2.9060    -4.7730    -0.9425 H       
  54 H54           -2.5103    -4.3056    -2.6170 H       
  55 H55           -0.7556    -5.7640    -1.4548 H       
  56 H56           -0.1416    -4.2259    -2.1152 H       
  57 H57           -0.1405    -2.7467     1.4029 H       
  58 H58            0.2552    -2.2793    -0.2716 H       
  59 H59           -1.8865    -1.2872     0.2371 H       
  60 H60           -2.5029    -2.8226     0.9018 H       
  61 H61            1.5328    -2.9331     1.4120 H       
  62 H62            2.0094    -3.7754     5.5709 H       
  63 H63           -0.0733    -6.4826     3.2159 H       
@<TRIPOS>BOND
   1    1    2 ar
   2    1   10 ar
   3    2    3 ar
   4    2   40 1
   5    3    4 ar
   6    3   41 1
   7    4    5 ar
   8    4   42 1
   9    5    6 ar
  10    5   10 ar
  11    6    7 ar
  12    6   43 1
  13    7    8 ar
  14    7   44 1
  15    8    9 ar
  16    8   45 1
  17    9   10 ar
  18    9   11 1
  19   11   12 2
  20   11   13 2
  21   11   14 am
  22   14   15 1
  23   14   46 1
  24   15   16 ar
  25   15   20 ar
  26   16   17 ar
  27   16   21 1
  28   17   18 ar
  29   17   47 1
  30   18   19 ar
  31   18   23 1
  32   19   20 ar
  33   19   48 1
  34   20   49 1
  35   21   22 1
  36   22   50 1
  37   22   51 1
  38   22   52 1
  39   23   24 2
  40   23   25 am
  41   25   26 1
  42   25   30 1
  43   26   27 1
  44   26   53 1
  45   26   54 1
  46   27   28 1
  47   27   55 1
  48   27   56 1
  49   28   29 1
  50   28   31 am
  51   29   30 1
  52   29   57 1
  53   29   58 1
  54   30   59 1
  55   30   60 1
  56   31   32 1
  57   31   38 2
  58   32   33 ar
  59   32   37 ar
  60   33   34 ar
  61   33   61 1
  62   34   35 ar
  63   34   39 1
  64   35   36 ar
  65   35   62 1
  66   36   37 ar
  67   37   63 1

#	End of record

