#	Name: ASD01911269
#	Creating user name:	WinNT
#	Creation time:	15. 06. 2019 19:57

#	Modifying user name:	WinNT
#	Modification time:	15. 06. 2019 19:57

#	Program:	/corina/corina34_cracker 3.40 0067  02.08.2006

@<TRIPOS>MOLECULE
ASD01911269
  47   50    0    0    0
SMALL
NO_CHARGES


@<TRIPOS>ATOM
   1 C1            -1.0338     1.1374    -1.0469 C.3     
   2 C2            -0.2825     0.1548    -0.1432 C.3     
   3 N3             0.7198    -0.5565    -0.9483 N.am    
   4 C4             1.6809     0.2287    -1.7347 C.3     
   5 C5             0.9075     1.2105    -2.6206 C.3     
   6 C6            -0.0266     2.0519    -1.7479 C.3     
   7 C7             0.7573    -1.9036    -0.9647 C.2     
   8 O8             1.5844    -2.4806    -1.6439 O.2     
   9 C9            -0.2056    -2.6784    -0.1583 C.ar    
  10 C10            2.5000    -0.6945    -2.5994 C.2     
  11 N11            3.7674    -0.9861    -2.4434 N.2     
  12 C12            4.0681    -1.8454    -3.4431 C.2     
  13 N13            2.9764    -2.0234    -4.1406 N.2     
  14 O14            2.0682    -1.3743    -3.6662 O.3     
  15 C15            5.3899    -2.4693    -3.7009 C.ar    
  16 C16            6.4710    -2.1853    -2.8696 C.ar    
  17 C17            7.6982    -2.7683    -3.1139 C.ar    
  18 C18            7.8554    -3.6331    -4.1817 C.ar    
  19 C19            6.7851    -3.9187    -5.0104 C.ar    
  20 C20            5.5524    -3.3458    -4.7719 C.ar    
  21 C21            6.9641    -4.8615    -6.1723 C.3     
  22 C22           -0.7035    -3.8953    -0.6365 C.ar    
  23 C23           -1.6046    -4.6154     0.1246 C.ar    
  24 C24           -2.0136    -4.1338     1.3570 C.ar    
  25 C25           -1.5222    -2.9274     1.8350 C.ar    
  26 C26           -0.6196    -2.2026     1.0886 C.ar    
  27 F27           -2.8950    -4.8415     2.0969 F       
  28 F28           -0.3049    -4.3648    -1.8389 F       
  29 H29           -1.6028     0.5831    -1.7933 H       
  30 H30           -1.7136     1.7395    -0.4439 H       
  31 H31            0.2138     0.7018     0.6583 H       
  32 H32           -0.9855    -0.5618     0.2815 H       
  33 H33            2.3374     0.7818    -1.0630 H       
  34 H34            1.6096     1.8646    -3.1377 H       
  35 H35            0.3203     0.6555    -3.3522 H       
  36 H36           -0.5601     2.7682    -2.3728 H       
  37 H37            0.5589     2.5875    -1.0007 H       
  38 H38            6.3494    -1.5098    -2.0357 H       
  39 H39            8.5371    -2.5485    -2.4703 H       
  40 H40            8.8173    -4.0868    -4.3695 H       
  41 H41            4.7175    -3.5697    -5.4193 H       
  42 H42            6.7516    -5.8806    -5.8493 H       
  43 H43            6.2797    -4.5843    -6.9740 H       
  44 H44            7.9907    -4.8016    -6.5340 H       
  45 H45           -1.9907    -5.5549    -0.2424 H       
  46 H46           -1.8453    -2.5576     2.7969 H       
  47 H47           -0.2384    -1.2640     1.4630 H       
@<TRIPOS>BOND
   1    1    2 1
   2    1    6 1
   3    1   29 1
   4    1   30 1
   5    2    3 1
   6    2   31 1
   7    2   32 1
   8    3    4 1
   9    3    7 am
  10    4    5 1
  11    4   10 1
  12    4   33 1
  13    5    6 1
  14    5   34 1
  15    5   35 1
  16    6   36 1
  17    6   37 1
  18    7    8 2
  19    7    9 1
  20    9   22 ar
  21    9   26 ar
  22   10   11 2
  23   10   14 1
  24   11   12 1
  25   12   13 2
  26   12   15 1
  27   13   14 1
  28   15   16 ar
  29   15   20 ar
  30   16   17 ar
  31   16   38 1
  32   17   18 ar
  33   17   39 1
  34   18   19 ar
  35   18   40 1
  36   19   20 ar
  37   19   21 1
  38   20   41 1
  39   21   42 1
  40   21   43 1
  41   21   44 1
  42   22   23 ar
  43   22   28 1
  44   23   24 ar
  45   23   45 1
  46   24   25 ar
  47   24   27 1
  48   25   26 ar
  49   25   46 1
  50   26   47 1

#	End of record

