#	Name: ASD03080145
#	Creating user name:	WinNT
#	Creation time:	15. 06. 2019 20:26

#	Modifying user name:	WinNT
#	Modification time:	15. 06. 2019 20:26

#	Program:	/corina/corina34_cracker 3.40 0067  02.08.2006

@<TRIPOS>MOLECULE
ASD03080145
  41   42    0    0    0
SMALL
NO_CHARGES


@<TRIPOS>ATOM
   1 C1             1.1225    -0.4421    -0.5936 C.ar    
   2 C2             0.0032    -0.0126     0.1074 C.ar    
   3 C3             0.0795     1.1218     0.9047 C.ar    
   4 C4             1.2676     1.8197     0.9986 C.ar    
   5 C5             2.3810     1.3899     0.2987 C.ar    
   6 C6             2.3080     0.2597    -0.4961 C.ar    
   7 C7            -1.1832    -2.0648    -0.0990 C.2     
   8 N8            -1.1996    -0.7216     0.0101 N.am    
   9 C9            -2.1799    -4.3314    -0.2331 C.3     
  10 C10           -2.4775    -2.8367    -0.0980 C.3     
  11 C11           -3.1964    -6.6098    -0.3671 C.3     
  12 C12           -3.4940    -5.1151    -0.2321 C.3     
  13 Br13           4.0057     2.3488     0.4287 Br      
  14 O14           -0.1267    -2.6523    -0.1980 O.2     
  15 N15           -4.4581    -7.3623    -0.3661 N.3     
  16 C16           -4.2329    -8.7688    -0.7299 C.3     
  17 C17           -5.4418    -6.7426    -1.2659 C.3     
  18 C18           -6.7575    -7.5217    -1.1891 C.3     
  19 O19           -6.5136    -8.8926    -1.5154 O.3     
  20 C20           -5.5607    -9.5276    -0.6585 C.3     
  21 H21            1.0671    -1.3265    -1.2109 H       
  22 H22           -0.7895     1.4582     1.4507 H       
  23 H23            1.3274     2.7020     1.6185 H       
  24 H24            3.1787    -0.0739    -1.0410 H       
  25 H25           -2.0450    -0.2461     0.0212 H       
  26 H26           -1.6492    -4.5132    -1.1676 H       
  27 H27           -1.5626    -4.6561     0.6045 H       
  28 H28           -3.0082    -2.6549     0.8365 H       
  29 H29           -3.0948    -2.5120    -0.9356 H       
  30 H30           -2.6657    -6.7917    -1.3016 H       
  31 H31           -2.5791    -6.9345     0.4705 H       
  32 H32           -4.0247    -4.9333     0.7025 H       
  33 H33           -4.1113    -4.7904    -1.0697 H       
  34 H34           -3.8365    -8.8235    -1.7438 H       
  35 H35           -3.5210    -9.2149    -0.0355 H       
  36 H36           -5.6123    -5.7096    -0.9626 H       
  37 H37           -5.0647    -6.7649    -2.2883 H       
  38 H38           -7.1620    -7.4543    -0.1792 H       
  39 H39           -7.4717    -7.1006    -1.8967 H       
  40 H40           -5.4094   -10.5573    -0.9825 H       
  41 H41           -5.9304    -9.5186     0.3668 H       
@<TRIPOS>BOND
   1    1    2 ar
   2    1    6 ar
   3    1   21 1
   4    2    3 ar
   5    2    8 1
   6    3    4 ar
   7    3   22 1
   8    4    5 ar
   9    4   23 1
  10    5    6 ar
  11    5   13 1
  12    6   24 1
  13    7    8 am
  14    7   14 2
  15    7   10 1
  16    8   25 1
  17    9   10 1
  18    9   12 1
  19    9   26 1
  20    9   27 1
  21   10   28 1
  22   10   29 1
  23   11   12 1
  24   11   15 1
  25   11   30 1
  26   11   31 1
  27   12   32 1
  28   12   33 1
  29   15   16 1
  30   15   17 1
  31   16   20 1
  32   16   34 1
  33   16   35 1
  34   17   18 1
  35   17   36 1
  36   17   37 1
  37   18   19 1
  38   18   38 1
  39   18   39 1
  40   19   20 1
  41   20   40 1
  42   20   41 1

#	End of record

