#	Name: ASD02560237
#	Creating user name:	WinNT
#	Creation time:	15. 06. 2019 20:24

#	Modifying user name:	WinNT
#	Modification time:	15. 06. 2019 20:24

#	Program:	/corina/corina34_cracker 3.40 0067  02.08.2006

@<TRIPOS>MOLECULE
ASD02560237
  35   37    0    0    0
SMALL
NO_CHARGES


@<TRIPOS>ATOM
   1 N1             0.0141     1.4004     0.2828 N.2     
   2 N2             0.0204     0.0011     0.1904 N.2     
   3 C3             1.2692    -0.3792     0.0896 C.2     
   4 O4             2.0463     0.7179     0.1146 O.3     
   5 C5             1.2596     1.8019     0.2336 C.2     
   6 N6             1.7138    -1.6880    -0.0234 N.pl3   
   7 C7             0.8102    -2.7421     0.0842 C.ar    
   8 C8             1.0428    -3.9292    -0.6045 C.ar    
   9 C9             0.1518    -4.9730    -0.5004 C.ar    
  10 C10           -0.9882    -4.8400     0.2983 C.ar    
  11 C11           -1.2188    -3.6462     0.9887 C.ar    
  12 C12           -0.3207    -2.6084     0.8846 C.ar    
  13 C13            0.7622     4.1548     0.4179 C.ar    
  14 C14            0.3723     4.5931     1.6778 C.ar    
  15 C15           -0.5471     5.6182     1.7970 C.ar    
  16 C16           -1.0788     6.2076     0.6647 C.ar    
  17 C17           -0.6933     5.7743    -0.5906 C.ar    
  18 C18            0.2299     4.7535    -0.7178 C.ar    
  19 Cl19           0.7133     4.2103    -2.2942 Cl      
  20 Cl20           1.0386     3.8535     3.1000 Cl      
  21 C21           -1.9176    -5.9238     0.4085 C.1     
  22 N22           -2.6549    -6.7836     0.4960 N.1     
  23 N23            1.6923     3.1176     0.2931 N.pl3   
  24 C24            3.1238     3.4217     0.2254 C.3     
  25 H25            2.6542    -1.8691    -0.1773 H       
  26 H26            1.9234    -4.0311    -1.2215 H       
  27 H27            0.3327    -5.8937    -1.0352 H       
  28 H28           -2.0985    -3.5401     1.6061 H       
  29 H29           -0.4982    -1.6860     1.4176 H       
  30 H30           -0.8509     5.9591     2.7758 H       
  31 H31           -1.7973     7.0082     0.7610 H       
  32 H32           -1.1109     6.2368    -1.4727 H       
  33 H33            3.4162     3.5640    -0.8149 H       
  34 H34            3.3289     4.3323     0.7883 H       
  35 H35            3.6915     2.5950     0.6525 H       
@<TRIPOS>BOND
   1    1    2 1
   2    1    5 2
   3    2    3 2
   4    3    4 1
   5    3    6 1
   6    4    5 1
   7    5   23 1
   8    6    7 1
   9    6   25 1
  10    7    8 ar
  11    7   12 ar
  12    8    9 ar
  13    8   26 1
  14    9   10 ar
  15    9   27 1
  16   10   11 ar
  17   10   21 1
  18   11   12 ar
  19   11   28 1
  20   12   29 1
  21   13   14 ar
  22   13   23 1
  23   13   18 ar
  24   14   15 ar
  25   14   20 1
  26   15   16 ar
  27   15   30 1
  28   16   17 ar
  29   16   31 1
  30   17   18 ar
  31   17   32 1
  32   18   19 1
  33   21   22 3
  34   23   24 1
  35   24   33 1
  36   24   34 1
  37   24   35 1

#	End of record

