#	Name: ASD03093012
#	Creating user name:	WinNT
#	Creation time:	15. 06. 2019 20:33

#	Modifying user name:	WinNT
#	Modification time:	15. 06. 2019 20:33

#	Program:	/corina/corina34_cracker 3.40 0067  02.08.2006

@<TRIPOS>MOLECULE
ASD03093012
  47   51    0    0    0
SMALL
NO_CHARGES


@<TRIPOS>ATOM
   1 C1            -0.0178     1.4608     0.0101 C.3     
   2 N2             0.0021    -0.0041     0.0020 N.am    
   3 C3            -1.0418    -0.6949     0.5016 C.2     
   4 C4            -1.0213    -2.2018     0.4933 C.3     
   5 O5            -1.9975    -0.1039     0.9578 O.2     
   6 C6            -2.2963    -2.7248     1.1032 C.ar    
   7 N7            -3.3335    -2.9469     0.3184 N.ar    
   8 C8            -4.4780    -3.4074     0.8063 C.ar    
   9 C9            -4.5760    -3.6619     2.1998 C.ar    
  10 C10           -3.4443    -3.4082     2.9848 C.ar    
  11 N11           -2.3351    -2.9490     2.3969 N.ar    
  12 C12           -5.6338    -3.6514    -0.0871 C.ar    
  13 C13            1.4172     2.0290    -0.0006 C.3     
  14 C14            1.3392     3.2862    -0.8400 C.ar    
  15 C15            0.1797     3.2746    -1.5922 C.ar    
  16 C16           -0.6008     2.0088    -1.3098 C.3     
  17 C17            2.2139     4.3555    -0.9382 C.ar    
  18 C18            1.9309     5.4095    -1.7844 C.ar    
  19 C19            0.7711     5.3979    -2.5369 C.ar    
  20 C20           -0.1021     4.3324    -2.4407 C.ar    
  21 C21           -5.8626    -2.8157    -1.1801 C.ar    
  22 C22           -6.9411    -3.0481    -2.0087 C.ar    
  23 C23           -7.7946    -4.1075    -1.7572 C.ar    
  24 C24           -7.5732    -4.9396    -0.6744 C.ar    
  25 C25           -6.4946    -4.7211     0.1579 C.ar    
  26 C26           -5.6844    -4.1580     2.9905 C.2     
  27 C27           -5.4343    -4.2793     4.2808 C.2     
  28 S28           -3.7940    -3.7919     4.6638 S.3     
  29 H29           -0.5761     1.8343     0.8685 H       
  30 H30            0.7665    -0.4767    -0.3629 H       
  31 H31           -0.9366    -2.5583    -0.5332 H       
  32 H32           -0.1691    -2.5568     1.0727 H       
  33 H33            1.7359     2.2705     1.0134 H       
  34 H34            2.1039     1.3138    -0.4535 H       
  35 H35           -0.4570     1.2882    -2.1148 H       
  36 H36           -1.6600     2.2365    -1.1896 H       
  37 H37            3.1201     4.3653    -0.3507 H       
  38 H38            2.6147     6.2422    -1.8581 H       
  39 H39            0.5481     6.2215    -3.1991 H       
  40 H40           -1.0080     4.3240    -3.0287 H       
  41 H41           -5.1971    -1.9882    -1.3772 H       
  42 H42           -7.1195    -2.4016    -2.8552 H       
  43 H43           -8.6374    -4.2854    -2.4087 H       
  44 H44           -8.2432    -5.7647    -0.4830 H       
  45 H45           -6.3227    -5.3714     1.0029 H       
  46 H46           -6.6415    -4.4088     2.5575 H       
  47 H47           -6.1493    -4.6339     5.0085 H       
@<TRIPOS>BOND
   1    1    2 1
   2    1   13 1
   3    1   16 1
   4    1   29 1
   5    2    3 am
   6    2   30 1
   7    3    4 1
   8    3    5 2
   9    4    6 1
  10    4   31 1
  11    4   32 1
  12    6    7 ar
  13    6   11 ar
  14    7    8 ar
  15    8    9 ar
  16    8   12 1
  17    9   10 ar
  18    9   26 1
  19   10   11 ar
  20   10   28 1
  21   12   21 ar
  22   12   25 ar
  23   13   14 1
  24   13   33 1
  25   13   34 1
  26   14   15 ar
  27   14   17 ar
  28   15   16 1
  29   15   20 ar
  30   16   35 1
  31   16   36 1
  32   17   18 ar
  33   17   37 1
  34   18   19 ar
  35   18   38 1
  36   19   20 ar
  37   19   39 1
  38   20   40 1
  39   21   22 ar
  40   21   41 1
  41   22   23 ar
  42   22   42 1
  43   23   24 ar
  44   23   43 1
  45   24   25 ar
  46   24   44 1
  47   25   45 1
  48   26   27 2
  49   26   46 1
  50   27   28 1
  51   27   47 1

#	End of record

