#	Name: ASD02508072
#	Creating user name:	WinNT
#	Creation time:	15. 06. 2019 20:23

#	Modifying user name:	WinNT
#	Modification time:	15. 06. 2019 20:23

#	Program:	/corina/corina34_cracker 3.40 0067  02.08.2006

@<TRIPOS>MOLECULE
ASD02508072
  40   42    0    0    0
SMALL
NO_CHARGES


@<TRIPOS>ATOM
   1 C1             1.6693    -4.1131     0.7456 C.ar    
   2 C2             0.9333    -3.0300     0.2905 C.ar    
   3 C3             3.0462    -3.9960     0.9325 C.ar    
   4 C4             3.6784    -2.7926     0.6618 C.ar    
   5 C5             2.9393    -1.7110     0.2068 C.ar    
   6 C6             1.5658    -1.8317     0.0216 C.ar    
   7 N7             1.3287    -5.4204     1.1016 N.am    
   8 C8             2.4623    -6.0457     1.4763 C.2     
   9 O9             3.4959    -5.1952     1.3776 O.3     
  10 N10            3.5766    -0.4953    -0.0668 N.am    
  11 S11            4.8502     0.0007     0.8682 S.o2    
  12 C12            4.2577     0.1478     2.5210 C.ar    
  13 C13            3.2818     1.0852     2.8279 C.ar    
  14 O14            2.5365    -7.2004     1.8506 O.2     
  15 O15            5.7862    -1.0685     0.8711 O.2     
  16 C16           -0.0145    -6.0046     1.0729 C.3     
  17 Cl17           0.6456    -0.4749    -0.5494 Cl      
  18 C18            4.7602    -0.6737     3.5111 C.ar    
  19 C19            4.2953    -0.5590     4.8085 C.ar    
  20 C20            3.3268     0.3777     5.1179 C.ar    
  21 C21            2.8175     1.1986     4.1301 C.ar    
  22 O22            2.7821     1.8912     1.8545 O.3     
  23 C23            4.8450    -1.4570     5.8867 C.3     
  24 C24            1.7798     2.8328     2.2429 C.3     
  25 O25            5.1744     1.3162     0.4395 O.2     
  26 H26           -0.1329    -3.1230     0.1462 H       
  27 H27            4.7445    -2.6972     0.8055 H       
  28 H28            3.2723     0.0567    -0.8041 H       
  29 H29           -0.1947    -6.4533     0.0961 H       
  30 H30           -0.0944    -6.7700     1.8448 H       
  31 H31           -0.7537    -5.2249     1.2565 H       
  32 H32            5.5166    -1.4065     3.2719 H       
  33 H33            2.9651     0.4651     6.1317 H       
  34 H34            2.0609     1.9303     4.3723 H       
  35 H35            5.7108    -0.9824     6.3483 H       
  36 H36            4.0785    -1.6283     6.6425 H       
  37 H37            5.1431    -2.4097     5.4490 H       
  38 H38            1.4682     3.4112     1.3732 H       
  39 H39            0.9210     2.3011     2.6525 H       
  40 H40            2.1859     3.5044     2.9994 H       
@<TRIPOS>BOND
   1    1    2 ar
   2    1    3 ar
   3    1    7 1
   4    2    6 ar
   5    2   26 1
   6    3    4 ar
   7    3    9 1
   8    4    5 ar
   9    4   27 1
  10    5    6 ar
  11    5   10 1
  12    6   17 1
  13    7    8 am
  14    7   16 1
  15    8    9 1
  16    8   14 2
  17   10   11 am
  18   10   28 1
  19   11   12 1
  20   11   15 2
  21   11   25 2
  22   12   13 ar
  23   12   18 ar
  24   13   22 1
  25   13   21 ar
  26   16   29 1
  27   16   30 1
  28   16   31 1
  29   18   19 ar
  30   18   32 1
  31   19   20 ar
  32   19   23 1
  33   20   21 ar
  34   20   33 1
  35   21   34 1
  36   22   24 1
  37   23   35 1
  38   23   36 1
  39   23   37 1
  40   24   38 1
  41   24   39 1
  42   24   40 1

#	End of record

