#	Name: ASD04910530
#	Creating user name:	WinNT
#	Creation time:	15. 06. 2019 20:56

#	Modifying user name:	WinNT
#	Modification time:	15. 06. 2019 20:56

#	Program:	/corina/corina34_cracker 3.40 0067  02.08.2006

@<TRIPOS>MOLECULE
ASD04910530
  61   63    0    0    0
SMALL
NO_CHARGES


@<TRIPOS>ATOM
   1 C1            -0.0184     1.5028     0.0103 C.2     
   2 C2             0.0021    -0.0041     0.0020 C.3     
   3 C3             1.4513    -0.4944    -0.0145 C.3     
   4 O4             1.0197     2.1211     0.0037 O.2     
   5 O5            -1.1898     2.1580     0.0194 O.3     
   6 C6             2.6473    -2.6171    -0.0373 C.2     
   7 C7             2.6674    -4.0932    -0.0454 C.ar    
   8 C8             3.8926    -4.7846    -0.0608 C.ar    
   9 C9             3.8964    -6.1767    -0.0678 C.ar    
  10 C10            2.7028    -6.8706    -0.0601 C.ar    
  11 C11            1.4963    -6.1909    -0.0450 C.ar    
  12 C12            1.4719    -4.8114    -0.0320 C.ar    
  13 O13            3.6918    -1.9950    -0.0439 O.2     
  14 N14            1.4712    -1.9592    -0.0225 N.am    
  15 C15            5.1244    -2.2965     3.2751 C.3     
  16 C16            4.0488    -2.3561     4.3616 C.3     
  17 C17            3.8769    -3.8023     4.8303 C.3     
  18 N18            4.7205    -3.1324     2.1418 N.pl3   
  19 C19            6.7534    -2.5535     0.9715 C.ar    
  20 C20            5.5468    -3.2367     1.0225 C.ar    
  21 C21            5.1705    -4.0361    -0.0700 C.ar    
  22 C22            6.0350    -4.1055    -1.1646 C.ar    
  23 C23            7.2214    -3.3891    -1.1316 C.ar    
  24 N24            7.5395    -2.6476    -0.0825 N.ar    
  25 N25            8.0956    -3.4513    -2.2232 N.pl3   
  26 N26            7.8979    -4.1883    -3.3981 N.2     
  27 C27            8.9284    -3.9954    -4.1811 C.2     
  28 C28            9.8177    -3.1303    -3.5342 C.2     
  29 C29            9.2838    -2.8033    -2.3347 C.2     
  30 C30           11.1352    -2.6433    -4.0802 C.3     
  31 F31           11.3445    -3.1905    -5.3506 F       
  32 F32           11.1149    -1.2474    -4.1713 F       
  33 F33           12.1694    -3.0398    -3.2255 F       
  34 C34            4.4706    -1.4831     5.5452 C.3     
  35 C35            2.7233    -1.8424     3.7958 C.3     
  36 H36           -0.4983    -0.3791     0.8948 H       
  37 H37           -0.5153    -0.3696    -0.8850 H       
  38 H38            1.9516    -0.1193    -0.9073 H       
  39 H39            1.9686    -0.1289     0.8726 H       
  40 H40           -1.1523     3.1243     0.0245 H       
  41 H41            4.8332    -6.7140    -0.0797 H       
  42 H42            2.7101    -7.9506    -0.0664 H       
  43 H43            0.5688    -6.7441    -0.0394 H       
  44 H44            0.5274    -4.2880    -0.0160 H       
  45 H45            0.6378    -2.4556    -0.0172 H       
  46 H46            5.2468    -1.2661     2.9412 H       
  47 H47            6.0687    -2.6624     3.6781 H       
  48 H48            4.8213    -4.1683     5.2334 H       
  49 H49            3.1107    -3.8448     5.6044 H       
  50 H50            3.5764    -4.4242     3.9871 H       
  51 H51            3.8785    -3.6133     2.1696 H       
  52 H52            7.0501    -1.9327     1.8040 H       
  53 H53            5.7830    -4.7089    -2.0242 H       
  54 H54            9.0686    -4.4300    -5.1598 H       
  55 H55            9.7241    -2.1475    -1.5981 H       
  56 H56            4.5931    -0.4527     5.2113 H       
  57 H57            3.7044    -1.5255     6.3193 H       
  58 H58            5.4149    -1.8490     5.9483 H       
  59 H59            2.4228    -2.4643     2.9526 H       
  60 H60            1.9571    -1.8848     4.5699 H       
  61 H61            2.8458    -0.8120     3.4619 H       
@<TRIPOS>BOND
   1    1    2 1
   2    1    4 2
   3    1    5 1
   4    2    3 1
   5    2   36 1
   6    2   37 1
   7    3   14 1
   8    3   38 1
   9    3   39 1
  10    5   40 1
  11    6    7 1
  12    6   13 2
  13    6   14 am
  14    7    8 ar
  15    7   12 ar
  16    8    9 ar
  17    8   21 1
  18    9   10 ar
  19    9   41 1
  20   10   11 ar
  21   10   42 1
  22   11   12 ar
  23   11   43 1
  24   12   44 1
  25   14   45 1
  26   15   16 1
  27   15   18 1
  28   15   46 1
  29   15   47 1
  30   16   17 1
  31   16   34 1
  32   16   35 1
  33   17   48 1
  34   17   49 1
  35   17   50 1
  36   18   20 1
  37   18   51 1
  38   19   20 ar
  39   19   24 ar
  40   19   52 1
  41   20   21 ar
  42   21   22 ar
  43   22   23 ar
  44   22   53 1
  45   23   24 ar
  46   23   25 1
  47   25   26 1
  48   25   29 1
  49   26   27 2
  50   27   28 1
  51   27   54 1
  52   28   29 2
  53   28   30 1
  54   29   55 1
  55   30   31 1
  56   30   32 1
  57   30   33 1
  58   34   56 1
  59   34   57 1
  60   34   58 1
  61   35   59 1
  62   35   60 1
  63   35   61 1

#	End of record

