#	Name: ASD05860004
#	Creating user name:	WinNT
#	Creation time:	15. 06. 2019 21:04

#	Modifying user name:	WinNT
#	Modification time:	15. 06. 2019 21:04

#	Program:	/corina/corina34_cracker 3.40 0067  02.08.2006

@<TRIPOS>MOLECULE
ASD05860004
  56   59    0    0    0
SMALL
NO_CHARGES


@<TRIPOS>ATOM
   1 C1             3.2409     1.4170    -0.2677 C.ar    
   2 C2             2.9637     1.4050     1.0847 C.ar    
   3 C3             2.7267     0.2050     1.7406 C.ar    
   4 C4             2.7673    -0.9799     1.0452 C.ar    
   5 C5             3.0467    -0.9854    -0.3257 C.ar    
   6 C6             3.2849     0.2292    -0.9830 C.ar    
   7 O7             3.5574     0.2433    -2.3119 O.3     
   8 Cl8            2.3790     0.2005     3.4414 Cl      
   9 C9             2.5628    -2.4208     1.4407 C.3     
  10 O10            2.7422    -3.2071     0.2309 O.3     
  11 C11            3.0219    -2.3804    -0.7910 C.2     
  12 O12            3.2251    -2.7347    -1.9354 O.2     
  13 C13            3.5978    -2.8291     2.4910 C.3     
  14 C14            1.1489    -2.6188     1.9910 C.3     
  15 C15            3.3076    -4.2566     2.9644 C.3     
  16 C16            4.4215    -4.6994     3.8889 C.2     
  17 C17            5.8452    -4.5466     3.4072 C.3     
  18 C18            6.0405    -3.0935     2.9443 C.3     
  19 C19            4.9985    -2.7639     1.8777 C.3     
  20 C20            6.8005    -4.7768     4.5591 C.2     
  21 C21            8.1684    -4.2666     4.4061 C.2     
  22 C22            8.4726    -3.4027     3.3823 C.2     
  23 C23            7.4515    -2.9415     2.3812 C.3     
  24 O24            4.1794    -5.1604     4.9784 O.2     
  25 O25            6.1102    -5.4534     2.3351 O.3     
  26 O26            6.4504    -5.3579     5.5656 O.2     
  27 O27            9.7311    -2.9524     3.2723 O.3     
  28 N28            7.5735    -3.7467     1.1587 N.4     
  29 C29            7.1388    -2.9511     0.0028 C.3     
  30 C30            8.9740    -4.1507     0.9762 C.3     
  31 C31            9.2167    -4.6819     5.3517 C.2     
  32 N32            8.9012    -5.4522     6.4118 N.am    
  33 O33           10.3678    -4.3301     5.1767 O.2     
  34 H34            3.4198     2.3552    -0.7717 H       
  35 H35            2.9316     2.3338     1.6349 H       
  36 H36            2.7739     0.3212    -2.8733 H       
  37 H37            3.5420    -2.1472     3.3395 H       
  38 H38            0.4204    -2.3390     1.2299 H       
  39 H39            1.0077    -3.6651     2.2619 H       
  40 H40            1.0114    -1.9932     2.8730 H       
  41 H41            2.3583    -4.2782     3.4996 H       
  42 H42            3.2596    -4.9242     2.1041 H       
  43 H43            5.9154    -2.4220     3.7938 H       
  44 H44            5.0721    -3.4848     1.0635 H       
  45 H45            5.1793    -1.7609     1.4914 H       
  46 H46            7.6320    -1.8939     2.1403 H       
  47 H47            5.9966    -6.3845     2.5703 H       
  48 H48            6.9940    -4.5689     1.2382 H       
  49 H49            7.7673    -2.0650    -0.0854 H       
  50 H50            7.2257    -3.5499    -0.9038 H       
  51 H51            6.1008    -2.6481     0.1401 H       
  52 H52            9.2966    -4.7411     1.8338 H       
  53 H53            9.0646    -4.7482     0.0690 H       
  54 H54            9.6001    -3.2626     0.8902 H       
  55 H55            8.0002    -5.7982     6.5089 H       
  56 H56            9.5752    -5.6605     7.0776 H       
@<TRIPOS>BOND
   1    1    2 ar
   2    1    6 ar
   3    1   34 1
   4    2    3 ar
   5    2   35 1
   6    3    4 ar
   7    3    8 1
   8    4    5 ar
   9    4    9 1
  10    5    6 ar
  11    5   11 1
  12    6    7 1
  13    7   36 1
  14    9   10 1
  15    9   13 1
  16    9   14 1
  17   10   11 1
  18   11   12 2
  19   13   15 1
  20   13   19 1
  21   13   37 1
  22   14   38 1
  23   14   39 1
  24   14   40 1
  25   15   16 1
  26   15   41 1
  27   15   42 1
  28   16   17 1
  29   16   24 2
  30   17   18 1
  31   17   20 1
  32   17   25 1
  33   18   19 1
  34   18   23 1
  35   18   43 1
  36   19   44 1
  37   19   45 1
  38   20   21 1
  39   20   26 2
  40   21   22 2
  41   21   31 1
  42   22   23 1
  43   22   27 1
  44   23   28 1
  45   23   46 1
  46   25   47 1
  47   28   29 1
  48   28   30 1
  49   28   48 1
  50   29   49 1
  51   29   50 1
  52   29   51 1
  53   30   52 1
  54   30   53 1
  55   30   54 1
  56   31   32 am
  57   31   33 2
  58   32   55 1
  59   32   56 1

#	End of record

