#	Name: ASD05723008
#	Creating user name:	WinNT
#	Creation time:	15. 06. 2019 21:02

#	Modifying user name:	WinNT
#	Modification time:	15. 06. 2019 21:02

#	Program:	/corina/corina34_cracker 3.40 0067  02.08.2006

@<TRIPOS>MOLECULE
ASD05723008
  46   49    0    0    0
SMALL
NO_CHARGES


@<TRIPOS>ATOM
   1 N1             0.1266     0.8054    -0.0683 N.ar    
   2 C2            -0.0031    -0.4661     0.2608 C.ar    
   3 N3             1.0223    -1.3124     0.2889 N.ar    
   4 C4             2.2497    -0.9171    -0.0179 C.ar    
   5 C5             2.4471     0.4385    -0.3794 C.ar    
   6 C6             1.3268     1.3052    -0.3956 C.ar    
   7 C7             3.7084     0.9422    -0.7187 C.ar    
   8 C8             3.8035     2.2668    -1.0556 C.ar    
   9 C9             2.6659     3.0651    -1.0526 C.ar    
  10 N10            1.4849     2.5857    -0.7326 N.ar    
  11 N11            3.3058    -1.8010     0.0145 N.3     
  12 C12            2.8899    -3.1357    -0.4406 C.3     
  13 C13            4.1039    -4.0684    -0.4457 C.3     
  14 O14            4.6815    -4.0980     0.8623 O.3     
  15 C15            5.0985    -2.8149     1.3367 C.3     
  16 C16            3.8945    -1.8694     1.3599 C.3     
  17 N17           -1.2590    -0.9384     0.5910 N.3     
  18 C18           -1.7832    -0.2534     1.7794 C.3     
  19 C19           -3.1051    -0.8993     2.2007 C.3     
  20 C20           -4.1070    -0.7988     1.0472 C.3     
  21 C21           -3.5167    -1.4775    -0.1919 C.3     
  22 C22           -2.1829    -0.8148    -0.5438 C.3     
  23 C23           -0.7722    -0.3693     2.9220 C.3     
  24 H24            4.5807     0.3055    -0.7147 H       
  25 H25            4.7607     2.6898    -1.3226 H       
  26 H26            2.7549     4.1076    -1.3202 H       
  27 H27            2.1306    -3.5302     0.2345 H       
  28 H28            2.4807    -3.0654    -1.4484 H       
  29 H29            3.7896    -5.0733    -0.7277 H       
  30 H30            4.8408    -3.7028    -1.1608 H       
  31 H31            5.5035    -2.9132     2.3439 H       
  32 H32            5.8643    -2.4128     0.6734 H       
  33 H33            4.2186    -0.8749     1.6663 H       
  34 H34            3.1513    -2.2438     2.0638 H       
  35 H35           -1.9505     0.7986     1.5481 H       
  36 H36           -2.9360    -1.9479     2.4455 H       
  37 H37           -3.5017    -0.3806     3.0735 H       
  38 H38           -5.0358    -1.2959     1.3271 H       
  39 H39           -4.3060     0.2502     0.8279 H       
  40 H40           -3.3540    -2.5352     0.0153 H       
  41 H41           -4.2074    -1.3719    -1.0285 H       
  42 H42           -2.3483     0.2397    -0.7642 H       
  43 H43           -1.7529    -1.3052    -1.4171 H       
  44 H44            0.1318     0.1826     2.6647 H       
  45 H45           -1.2042     0.0454     3.8328 H       
  46 H46           -0.5241    -1.4185     3.0826 H       
@<TRIPOS>BOND
   1    1    2 ar
   2    1    6 ar
   3    2    3 ar
   4    2   17 1
   5    3    4 ar
   6    4    5 ar
   7    4   11 1
   8    5    6 ar
   9    5    7 ar
  10    6   10 ar
  11    7    8 ar
  12    7   24 1
  13    8    9 ar
  14    8   25 1
  15    9   10 ar
  16    9   26 1
  17   11   12 1
  18   11   16 1
  19   12   13 1
  20   12   27 1
  21   12   28 1
  22   13   14 1
  23   13   29 1
  24   13   30 1
  25   14   15 1
  26   15   16 1
  27   15   31 1
  28   15   32 1
  29   16   33 1
  30   16   34 1
  31   17   18 1
  32   17   22 1
  33   18   19 1
  34   18   23 1
  35   18   35 1
  36   19   20 1
  37   19   36 1
  38   19   37 1
  39   20   21 1
  40   20   38 1
  41   20   39 1
  42   21   22 1
  43   21   40 1
  44   21   41 1
  45   22   42 1
  46   22   43 1
  47   23   44 1
  48   23   45 1
  49   23   46 1

#	End of record

