#	Name: ASD01917583
#	Creating user name:	WinNT
#	Creation time:	15. 06. 2019 20:09

#	Modifying user name:	WinNT
#	Modification time:	15. 06. 2019 20:09

#	Program:	/corina/corina34_cracker 3.40 0067  02.08.2006

@<TRIPOS>MOLECULE
ASD01917583
  25   26    0    0    0
SMALL
NO_CHARGES


@<TRIPOS>ATOM
   1 N1            -0.0168     1.3844     0.0097 N.pl3   
   2 C2             0.0021    -0.0041     0.0020 C.ar    
   3 C3             1.2232    -0.6738    -0.0132 C.ar    
   4 C4             1.2388    -2.0433    -0.0203 C.ar    
   5 C5             0.0129    -2.7266    -0.0118 C.ar    
   6 C6            -1.1729    -1.9900     0.0035 C.ar    
   7 N7            -1.1418    -0.6726     0.0149 N.ar    
   8 C8            -0.0211    -4.1582    -0.0191 C.1     
   9 C9            -0.0489    -5.3318    -0.0252 C.1     
  10 C10           -0.0829    -6.7634    -0.0325 C.ar    
  11 C11           -1.3074    -7.4367    -0.0240 C.ar    
  12 C12           -1.3322    -8.8157    -0.0311 C.ar    
  13 C13           -0.1486    -9.5323    -0.0466 C.ar    
  14 C14            1.0678    -8.8725    -0.0547 C.ar    
  15 C15            1.1083    -7.4939    -0.0540 C.ar    
  16 H16            0.8166     1.8808     0.0044 H       
  17 H17           -0.8633     1.8580     0.0162 H       
  18 H18            2.1494    -0.1183    -0.0198 H       
  19 H19            2.1730    -2.5850    -0.0325 H       
  20 H20           -2.1229    -2.5037     0.0101 H       
  21 H21           -2.2320    -6.8787    -0.0115 H       
  22 H22           -2.2778    -9.3374    -0.0241 H       
  23 H23           -0.1742   -10.6120    -0.0521 H       
  24 H24            1.9876    -9.4384    -0.0664 H       
  25 H25            2.0582    -6.9802    -0.0652 H       
@<TRIPOS>BOND
   1    1    2 1
   2    1   16 1
   3    1   17 1
   4    2    3 ar
   5    2    7 ar
   6    3    4 ar
   7    3   18 1
   8    4    5 ar
   9    4   19 1
  10    5    6 ar
  11    5    8 1
  12    6    7 ar
  13    6   20 1
  14    8    9 3
  15    9   10 1
  16   10   11 ar
  17   10   15 ar
  18   11   12 ar
  19   11   21 1
  20   12   13 ar
  21   12   22 1
  22   13   14 ar
  23   13   23 1
  24   14   15 ar
  25   14   24 1
  26   15   25 1

#	End of record

