#	Name: ASD08628001
#	Creating user name:	WinNT
#	Creation time:	15. 06. 2019 21:19

#	Modifying user name:	WinNT
#	Modification time:	15. 06. 2019 21:19

#	Program:	/corina/corina34_cracker 3.40 0067  02.08.2006

@<TRIPOS>MOLECULE
ASD08628001
  49   52    0    0    0
SMALL
NO_CHARGES


@<TRIPOS>ATOM
   1 C1            -0.0187     1.5254     0.0104 C.3     
   2 C2             0.0021    -0.0041     0.0020 C.3     
   3 C3             0.6586    -0.5178     1.2850 C.3     
   4 C4             1.4183     2.0553    -0.0004 C.3     
   5 C5             2.1642     1.4423     1.1729 C.2     
   6 C6             2.8093     2.2371     1.9754 C.2     
   7 C7             3.5743     1.7478     3.1704 C.3     
   8 C8             4.0228     0.3027     2.9258 C.3     
   9 C9             4.6442    -0.2557     4.1940 C.3     
  10 C10            5.9658     0.3930     4.6253 C.3     
  11 C11            6.6231    -0.7219     5.4841 C.3     
  12 C12            6.0094    -2.0421     5.0290 C.2     
  13 C13            5.1080    -1.7030     3.8787 C.3     
  14 C14            5.9083    -1.7157     2.5748 C.3     
  15 C15            3.8593    -2.5476     3.7159 C.3     
  16 C16            3.1143    -2.0214     2.4791 C.3     
  17 C17            2.7785    -0.5383     2.6095 C.3     
  18 C18            2.1153    -0.0481     1.3332 C.3     
  19 C19            2.8577    -0.6793     0.1536 C.3     
  20 O20            6.2090    -3.1367     5.4983 O.2     
  21 O21           -0.7097     1.9988    -1.1473 O.3     
  22 H22            2.0654    -0.4178     3.4251 H       
  23 H23            4.7399     0.2642     2.1059 H       
  24 H24            3.9241    -0.2362     5.0120 H       
  25 H25           -0.5288     1.8769     0.9072 H       
  26 H26           -1.0191    -0.3803    -0.0586 H       
  27 H27            0.5687    -0.3543    -0.8607 H       
  28 H28            0.1218    -0.1275     2.1496 H       
  29 H29            0.6271    -1.6073     1.2984 H       
  30 H30            1.9064     1.7734    -0.9334 H       
  31 H31            1.4099     3.1409     0.0966 H       
  32 H32            2.7940     3.2977     1.7724 H       
  33 H33            4.4492     2.3791     3.3259 H       
  34 H34            2.9353     1.7864     4.0526 H       
  35 H35            6.5828     0.6280     3.7580 H       
  36 H36            5.7819     1.2850     5.2240 H       
  37 H37            7.7003    -0.7343     5.3186 H       
  38 H38            6.4090    -0.5550     6.5398 H       
  39 H39            6.7812    -1.0710     2.6779 H       
  40 H40            6.2320    -2.7334     2.3570 H       
  41 H41            5.2819    -1.3515     1.7604 H       
  42 H42            4.1340    -3.5919     3.5675 H       
  43 H43            3.2277    -2.4506     4.5990 H       
  44 H44            3.7399    -2.1679     1.5986 H       
  45 H45            2.1900    -2.5854     2.3545 H       
  46 H46            2.3920    -0.3632    -0.7799 H       
  47 H47            3.8995    -0.3589     0.1666 H       
  48 H48            2.8105    -1.7653     0.2337 H       
  49 H49           -0.7616     2.9625    -1.2077 H       
@<TRIPOS>BOND
   1    1    2 1
   2    1    4 1
   3    1   21 1
   4    1   25 1
   5    2    3 1
   6    2   26 1
   7    2   27 1
   8    3   18 1
   9    3   28 1
  10    3   29 1
  11    4    5 1
  12    4   30 1
  13    4   31 1
  14    5    6 2
  15    5   18 1
  16    6    7 1
  17    6   32 1
  18    7    8 1
  19    7   33 1
  20    7   34 1
  21    8    9 1
  22    8   23 1
  23    8   17 1
  24    9   10 1
  25    9   13 1
  26    9   24 1
  27   10   11 1
  28   10   35 1
  29   10   36 1
  30   11   12 1
  31   11   37 1
  32   11   38 1
  33   12   13 1
  34   12   20 2
  35   13   14 1
  36   13   15 1
  37   14   39 1
  38   14   40 1
  39   14   41 1
  40   15   16 1
  41   15   42 1
  42   15   43 1
  43   16   17 1
  44   16   44 1
  45   16   45 1
  46   17   22 1
  47   17   18 1
  48   18   19 1
  49   19   46 1
  50   19   47 1
  51   19   48 1
  52   21   49 1

#	End of record

