#	Name: ASD01148541
#	Creating user name:	WinNT
#	Creation time:	15. 06. 2019 19:02

#	Modifying user name:	WinNT
#	Modification time:	15. 06. 2019 19:02

#	Program:	/corina/corina34_cracker 3.40 0067  02.08.2006

@<TRIPOS>MOLECULE
ASD01148541
  52   55    0    0    0
SMALL
NO_CHARGES


@<TRIPOS>ATOM
   1 C1            -0.0180     1.4361     0.0451 C.ar    
   2 C2            -0.0166     0.0528     0.0405 C.ar    
   3 C3             1.1826    -0.6373     0.0176 C.ar    
   4 C4             2.3780     0.0558    -0.0007 C.ar    
   5 C5             2.3760     1.4384     0.0038 C.ar    
   6 C6             1.1785     2.1282     0.0267 C.ar    
   7 C7             3.6800     2.1936    -0.0157 C.3     
   8 O8             4.6901     1.4604    -0.7378 O.3     
   9 C9             3.5603     3.4833    -0.8622 C.3     
  10 C10            4.0470     3.0294    -2.2254 C.2     
  11 N11            4.6599     1.9008    -2.0811 N.2     
  12 C12            3.8535     3.7504    -3.4951 C.ar    
  13 C13            4.3767     3.1971    -4.7418 C.ar    
  14 C14            3.1678     4.9572    -3.5156 C.ar    
  15 C15            2.9706     5.6551    -4.6937 C.ar    
  16 C16            3.4505     5.1788    -5.9064 C.ar    
  17 C17            4.1757     3.9110    -5.9468 C.ar    
  18 C18            3.2253     5.9440    -7.1451 C.2     
  19 O19            3.7368     5.5798    -8.1861 O.2     
  20 N20            2.4522     7.0478    -7.1241 N.am    
  21 C21            4.6770     3.3922    -7.1471 C.ar    
  22 C22            5.0695     1.9800    -4.7690 C.ar    
  23 C23            4.1462     2.5123     1.4062 C.3     
  24 F24            4.3114     1.3210     2.1209 F       
  25 F25            5.3645     3.1980     1.3548 F       
  26 F26            3.1890     3.3093     2.0432 F       
  27 Cl27          -1.5188    -0.8171     0.0642 Cl      
  28 C28            2.2461     7.7478    -8.2573 C.2     
  29 O29            1.4740     8.8501    -8.2363 O.3     
  30 C30            1.2959     9.5542    -9.4937 C.3     
  31 O31            2.7572     7.3839    -9.2974 O.2     
  32 C32            5.5405     1.4998    -5.9548 C.ar    
  33 C33            5.3477     2.2051    -7.1396 C.ar    
  34 C34            1.1849    -2.1443     0.0132 C.3     
  35 F35            2.5045    -2.6084    -0.0112 F       
  36 F36            0.5462    -2.6150     1.1654 F       
  37 F37            0.5064    -2.6083    -1.1188 F       
  38 H38           -0.9537     1.9752     0.0584 H       
  39 H39            3.3140    -0.4827    -0.0183 H       
  40 H40            1.1775     3.2082     0.0299 H       
  41 H41            2.5243     3.8180    -0.9130 H       
  42 H42            4.2027     4.2686    -0.4638 H       
  43 H43            2.7794     5.3598    -2.5918 H       
  44 H44            2.4314     6.5906    -4.6696 H       
  45 H45            2.0441     7.3384    -6.2935 H       
  46 H46            4.5330     3.9289    -8.0732 H       
  47 H47            5.2299     1.4256    -3.8561 H       
  48 H48            2.2660     9.8831    -9.8665 H       
  49 H49            0.8342     8.8869   -10.2215 H       
  50 H50            0.6540    10.4210    -9.3369 H       
  51 H51            6.0749     0.5615    -5.9746 H       
  52 H52            5.7339     1.8059    -8.0658 H       
@<TRIPOS>BOND
   1    1    2 ar
   2    1    6 ar
   3    1   38 1
   4    2    3 ar
   5    2   27 1
   6    3    4 ar
   7    3   34 1
   8    4    5 ar
   9    4   39 1
  10    5    6 ar
  11    5    7 1
  12    6   40 1
  13    7    8 1
  14    7    9 1
  15    7   23 1
  16    8   11 1
  17    9   10 1
  18    9   41 1
  19    9   42 1
  20   10   11 2
  21   10   12 1
  22   12   13 ar
  23   12   14 ar
  24   13   22 ar
  25   13   17 ar
  26   14   15 ar
  27   14   43 1
  28   15   16 ar
  29   15   44 1
  30   16   17 ar
  31   16   18 1
  32   17   21 ar
  33   18   19 2
  34   18   20 am
  35   20   28 am
  36   20   45 1
  37   21   33 ar
  38   21   46 1
  39   22   32 ar
  40   22   47 1
  41   23   24 1
  42   23   25 1
  43   23   26 1
  44   28   29 1
  45   28   31 2
  46   29   30 1
  47   30   48 1
  48   30   49 1
  49   30   50 1
  50   32   33 ar
  51   32   51 1
  52   33   52 1
  53   34   35 1
  54   34   36 1
  55   34   37 1

#	End of record

