#	Name: ASD01410351
#	Creating user name:	WinNT
#	Creation time:	15. 06. 2019 19:17

#	Modifying user name:	WinNT
#	Modification time:	15. 06. 2019 19:17

#	Program:	/corina/corina34_cracker 3.40 0067  02.08.2006

@<TRIPOS>MOLECULE
ASD01410351
  63   67    0    0    0
SMALL
NO_CHARGES


@<TRIPOS>ATOM
   1 N1            -0.0166     1.3704     0.0096 N.pl3   
   2 C2             0.0021    -0.0041     0.0020 C.2     
   3 C3            -1.2724    -0.4709     0.0122 C.2     
   4 C4            -2.1425     0.6456     0.0268 C.ar    
   5 C5            -1.3287     1.7968     0.0304 C.ar    
   6 C6            -3.5390     0.7752     0.0414 C.ar    
   7 C7            -4.1082     2.0112     0.0532 C.ar    
   8 C8            -3.3065     3.1628     0.0513 C.ar    
   9 C9            -1.9169     3.0517     0.0438 C.ar    
  10 C10           -2.5082    -2.2189     1.2637 C.3     
  11 C11           -2.9293    -3.6898     1.2592 C.3     
  12 C12           -3.7757    -3.9742     0.0168 C.3     
  13 C13           -2.9547    -3.6749    -1.2391 C.3     
  14 C14           -2.5336    -2.2040    -1.2346 C.3     
  15 C15           -1.6871    -1.9197     0.0078 C.3     
  16 C16            1.1628     2.2395     0.0030 C.3     
  17 C17            1.5536     2.5452    -1.4200 C.2     
  18 O18            0.9103     2.0826    -2.3382 O.2     
  19 C19            3.0187     3.6450    -3.0532 C.3     
  20 N20            2.6179     3.3326    -1.6722 N.am    
  21 C21            3.4133     3.9056    -0.5748 C.3     
  22 C22            3.1842     5.1640    -3.1767 C.3     
  23 C23            3.5595     5.4119    -0.8190 C.3     
  24 O24            4.0551     5.6283    -2.1424 O.3     
  25 C25            3.5005    -2.4129    -0.0475 C.ar    
  26 C26            3.4056    -1.3189    -0.8892 C.ar    
  27 C27            2.2722    -0.5324    -0.8779 C.ar    
  28 C28            1.2198    -0.8427    -0.0153 C.ar    
  29 C29            1.3220    -1.9476     0.8311 C.ar    
  30 C30            2.4610    -2.7257     0.8103 C.ar    
  31 C31           -3.9363     4.4956     0.0642 C.2     
  32 O32           -3.2444     5.4945     0.0627 O.2     
  33 O33           -5.2793     4.6061     0.0777 O.3     
  34 H34           -4.1629    -0.1064     0.0429 H       
  35 H35           -5.1839     2.1064     0.0636 H       
  36 H36           -1.3016     3.9393     0.0428 H       
  37 H37           -3.3961    -1.5868     1.2764 H       
  38 H38           -1.9052    -2.0163     2.1488 H       
  39 H39           -2.0414    -4.3219     1.2464 H       
  40 H40           -3.5142    -3.9030     2.1539 H       
  41 H41           -4.0757    -5.0221     0.0136 H       
  42 H42           -4.6636    -3.3421     0.0295 H       
  43 H43           -2.0668    -4.3070    -1.2519 H       
  44 H44           -3.5577    -3.8775    -2.1242 H       
  45 H45           -1.9486    -1.9909    -2.1294 H       
  46 H46           -3.4215    -1.5719    -1.2219 H       
  47 H47           -0.7992    -2.5518    -0.0050 H       
  48 H48            0.9322     3.1687     0.5240 H       
  49 H49            1.9881     1.7359     0.5063 H       
  50 H50            3.9642     3.1530    -3.2813 H       
  51 H51            2.2495     3.3021    -3.7452 H       
  52 H52            2.9054     3.7352     0.3745 H       
  53 H53            4.3985     3.4399    -0.5533 H       
  54 H54            3.6128     5.4057    -4.1493 H       
  55 H55            2.2114     5.6455    -3.0769 H       
  56 H56            2.5881     5.8943    -0.7106 H       
  57 H57            4.2581     5.8319    -0.0954 H       
  58 H58            4.3881    -3.0280    -0.0634 H       
  59 H59            4.2207    -1.0799    -1.5562 H       
  60 H60            2.1995     0.3215    -1.5351 H       
  61 H61            0.5111    -2.1930     1.5009 H       
  62 H62            2.5413    -3.5810     1.4648 H       
  63 H63           -5.6461     5.5008     0.0858 H       
@<TRIPOS>BOND
   1    1    2 1
   2    1   16 1
   3    1    5 1
   4    2    3 2
   5    2   28 1
   6    3    4 1
   7    3   15 1
   8    4    5 ar
   9    4    6 ar
  10    5    9 ar
  11    6    7 ar
  12    6   34 1
  13    7    8 ar
  14    7   35 1
  15    8    9 ar
  16    8   31 1
  17    9   36 1
  18   10   11 1
  19   10   15 1
  20   10   37 1
  21   10   38 1
  22   11   12 1
  23   11   39 1
  24   11   40 1
  25   12   13 1
  26   12   41 1
  27   12   42 1
  28   13   14 1
  29   13   43 1
  30   13   44 1
  31   14   15 1
  32   14   45 1
  33   14   46 1
  34   15   47 1
  35   16   17 1
  36   16   48 1
  37   16   49 1
  38   17   18 2
  39   17   20 am
  40   19   20 1
  41   19   22 1
  42   19   50 1
  43   19   51 1
  44   20   21 1
  45   21   23 1
  46   21   52 1
  47   21   53 1
  48   22   24 1
  49   22   54 1
  50   22   55 1
  51   23   24 1
  52   23   56 1
  53   23   57 1
  54   25   26 ar
  55   25   30 ar
  56   25   58 1
  57   26   27 ar
  58   26   59 1
  59   27   28 ar
  60   27   60 1
  61   28   29 ar
  62   29   30 ar
  63   29   61 1
  64   30   62 1
  65   31   32 2
  66   31   33 1
  67   33   63 1

#	End of record

