#	Name: ASD01708031
#	Creating user name:	WinNT
#	Creation time:	15. 06. 2019 19:22

#	Modifying user name:	WinNT
#	Modification time:	15. 06. 2019 19:22

#	Program:	/corina/corina34_cracker 3.40 0067  02.08.2006

@<TRIPOS>MOLECULE
ASD01708031
  65   69    0    0    0
SMALL
NO_CHARGES


@<TRIPOS>ATOM
   1 C1            -0.0141     1.3891    -0.0471 C.ar    
   2 C2             1.0979     1.9510     0.5650 C.ar    
   3 C3             0.0824     0.1386    -0.6598 C.ar    
   4 C4             1.2849    -0.5400    -0.6574 C.ar    
   5 C5             2.4038     0.0271    -0.0412 C.ar    
   6 C6             2.3006     1.2783     0.5706 C.ar    
   7 C7             3.6912    -0.6951    -0.0359 C.2     
   8 N8             3.7093    -2.0394     0.0589 N.am    
   9 O9             4.7352    -0.0773    -0.1171 O.2     
  10 C10            4.9646    -2.7991    -0.0631 C.3     
  11 C11            2.4802    -2.8044     0.2939 C.3     
  12 C12            2.7313    -3.8611     1.3411 C.ar    
  13 C13            3.9993    -4.1761     1.7796 C.ar    
  14 C14            5.2306    -3.4837     1.2765 C.3     
  15 C15            1.6279    -4.5250     1.8640 C.ar    
  16 C16            1.7834    -5.5072     2.8178 C.ar    
  17 C17            3.0663    -5.8390     3.2624 C.ar    
  18 C18            4.1692    -5.1674     2.7370 C.ar    
  19 Cl19           5.7662    -5.5737     3.2831 Cl      
  20 Cl20           0.3956    -6.3264     3.4632 Cl      
  21 C21            3.2519    -6.8925     4.2807 C.2     
  22 N22            3.2512    -6.5721     5.5898 N.am    
  23 O23            3.4054    -8.0488     3.9380 O.2     
  24 C24            3.4353    -7.6171     6.5999 C.3     
  25 C25            2.1072    -8.2606     6.9048 C.2     
  26 O26            2.0329    -9.2513     7.8075 O.3     
  27 O27            1.1092    -7.8849     6.3367 O.2     
  28 C28            4.0068    -6.9973     7.8766 C.3     
  29 C29            5.3882    -6.4620     7.6004 C.ar    
  30 C30            5.5511    -5.1581     7.1707 C.ar    
  31 C31            6.4927    -7.2728     7.7821 C.ar    
  32 C32            7.7600    -6.7817     7.5287 C.ar    
  33 C33            7.9224    -5.4801     7.0932 C.ar    
  34 C34            6.8180    -4.6671     6.9173 C.ar    
  35 O35           -1.2934     1.8415    -0.1819 O.3     
  36 C36           -1.8722     1.0525    -1.2379 C.3     
  37 O37           -1.1371    -0.1858    -1.1814 O.3     
  38 S38            9.1681    -7.8150     7.7614 S.o2    
  39 O39           10.2290    -6.9073     8.0256 O.2     
  40 O40            8.7519    -8.7598     8.7379 O.2     
  41 C41            9.4069    -8.6232     6.1551 C.3     
  42 H42            1.0203     2.9187     1.0382 H       
  43 H43            1.3607    -1.5078    -1.1308 H       
  44 H44            3.1635     1.7190     1.0475 H       
  45 H45            4.8670    -3.5493    -0.8478 H       
  46 H46            5.7845    -2.1211    -0.3000 H       
  47 H47            1.6947    -2.1318     0.6385 H       
  48 H48            2.1667    -3.2813    -0.6347 H       
  49 H49            6.0263    -4.2172     1.1461 H       
  50 H50            5.5468    -2.7391     2.0070 H       
  51 H51            0.6373    -4.2678     1.5191 H       
  52 H52            3.1287    -5.6495     5.8632 H       
  53 H53            4.1258    -8.3707     6.2212 H       
  54 H54            1.1593    -9.6330     7.9695 H       
  55 H55            3.3609    -6.1835     8.2061 H       
  56 H56            4.0608    -7.7569     8.6566 H       
  57 H57            4.6883    -4.5232     7.0326 H       
  58 H58            6.3658    -8.2899     8.1224 H       
  59 H59            8.9124    -5.0963     6.8956 H       
  60 H60            6.9449    -3.6500     6.5770 H       
  61 H61           -2.9308     0.8759    -1.0477 H       
  62 H62           -1.7316     1.5412    -2.2020 H       
  63 H63            9.5795    -7.8665     5.3898 H       
  64 H64           10.2680    -9.2894     6.2080 H       
  65 H65            8.5168    -9.1992     5.9022 H       
@<TRIPOS>BOND
   1    1    2 ar
   2    1    3 ar
   3    1   35 1
   4    2    6 ar
   5    2   42 1
   6    3    4 ar
   7    3   37 1
   8    4    5 ar
   9    4   43 1
  10    5    6 ar
  11    5    7 1
  12    6   44 1
  13    7    8 am
  14    7    9 2
  15    8   10 1
  16    8   11 1
  17   10   14 1
  18   10   45 1
  19   10   46 1
  20   11   12 1
  21   11   47 1
  22   11   48 1
  23   12   13 ar
  24   12   15 ar
  25   13   14 1
  26   13   18 ar
  27   14   49 1
  28   14   50 1
  29   15   16 ar
  30   15   51 1
  31   16   17 ar
  32   16   20 1
  33   17   18 ar
  34   17   21 1
  35   18   19 1
  36   21   22 am
  37   21   23 2
  38   22   24 1
  39   22   52 1
  40   24   25 1
  41   24   28 1
  42   24   53 1
  43   25   26 1
  44   25   27 2
  45   26   54 1
  46   28   29 1
  47   28   55 1
  48   28   56 1
  49   29   30 ar
  50   29   31 ar
  51   30   34 ar
  52   30   57 1
  53   31   32 ar
  54   31   58 1
  55   32   33 ar
  56   32   38 1
  57   33   34 ar
  58   33   59 1
  59   34   60 1
  60   35   36 1
  61   36   37 1
  62   36   61 1
  63   36   62 1
  64   38   39 2
  65   38   40 2
  66   38   41 1
  67   41   63 1
  68   41   64 1
  69   41   65 1

#	End of record

