#	Name: ASD07931949
#	Creating user name:	WinNT
#	Creation time:	15. 06. 2019 21:13

#	Modifying user name:	WinNT
#	Modification time:	15. 06. 2019 21:13

#	Program:	/corina/corina34_cracker 3.40 0067  02.08.2006

@<TRIPOS>MOLECULE
ASD07931949
  23   23    0    0    0
SMALL
NO_CHARGES


@<TRIPOS>ATOM
   1 C1            -0.0168     1.3906     0.0097 C.ar    
   2 C2             0.0021    -0.0041     0.0020 C.ar    
   3 N3             1.1285     2.0674     0.0024 N.ar    
   4 N4             1.1562    -0.6462    -0.0125 N.ar    
   5 C5             2.2907     0.0311    -0.0196 C.ar    
   6 C6             2.2754     1.4186    -0.0120 C.ar    
   7 C7            -1.3076     2.1156     0.0197 C.2     
   8 O8            -2.3520     1.4960     0.0213 O.2     
   9 O9            -1.3236     3.4622     0.0271 O.3     
  10 C10            3.6053    -0.7055    -0.0362 C.3     
  11 O11            4.6794     0.2370    -0.0413 O.3     
  12 C12            5.9772    -0.3610    -0.0570 C.3     
  13 C13           -2.6250     4.1061     0.0368 C.3     
  14 H14           -0.9251    -0.5578     0.0083 H       
  15 H15            3.2053     1.9678    -0.0183 H       
  16 H16            3.6796    -1.3362     0.8498 H       
  17 H17            3.6626    -1.3266    -0.9301 H       
  18 H18            6.1007    -0.9844     0.8286 H       
  19 H19            6.0837    -0.9749    -0.9513 H       
  20 H20            6.7372     0.4204    -0.0600 H       
  21 H21           -3.1827     3.8114    -0.8522 H       
  22 H22           -3.1743     3.8018     0.9277 H       
  23 H23           -2.4949     5.1883     0.0420 H       
@<TRIPOS>BOND
   1    1    2 ar
   2    1    3 ar
   3    1    7 1
   4    2    4 ar
   5    2   14 1
   6    3    6 ar
   7    4    5 ar
   8    5    6 ar
   9    5   10 1
  10    6   15 1
  11    7    8 2
  12    7    9 1
  13    9   13 1
  14   10   11 1
  15   10   16 1
  16   10   17 1
  17   11   12 1
  18   12   18 1
  19   12   19 1
  20   12   20 1
  21   13   21 1
  22   13   22 1
  23   13   23 1

#	End of record

