#	Name: ASD01910350
#	Creating user name:	WinNT
#	Creation time:	15. 06. 2019 19:55

#	Modifying user name:	WinNT
#	Modification time:	15. 06. 2019 19:55

#	Program:	/corina/corina34_cracker 3.40 0067  02.08.2006

@<TRIPOS>MOLECULE
ASD01910350
  41   43    0    0    0
SMALL
NO_CHARGES


@<TRIPOS>ATOM
   1 C1            -0.0173     1.4278     0.0099 C.ar    
   2 C2             0.0021    -0.0041     0.0020 C.1     
   3 C3             0.0180    -1.1779    -0.0044 C.1     
   4 C4             0.0374    -2.6098    -0.0123 C.ar    
   5 C5            -1.1646    -3.3262    -0.0047 C.ar    
   6 C6            -1.1454    -4.6917    -0.0127 C.ar    
   7 C7             0.0749    -5.3739    -0.0280 C.ar    
   8 C8             1.2762    -4.6588    -0.0352 C.ar    
   9 C9             1.2584    -3.2932    -0.0335 C.ar    
  10 C10            0.0949    -6.8500    -0.0362 C.2     
  11 O11           -0.9496    -7.4722    -0.0295 O.2     
  12 N12            1.2711    -7.5079    -0.0509 N.am    
  13 C13            1.1814     2.1464     0.0023 C.ar    
  14 C14            1.1547     3.5253     0.0100 C.ar    
  15 C15           -0.0549     4.1973     0.0257 C.ar    
  16 C16           -1.2459     3.4926     0.0333 C.ar    
  17 C17           -1.2352     2.1136     0.0194 C.ar    
  18 C18            1.2910    -8.9728    -0.0590 C.3     
  19 C19            2.6023    -9.4787    -0.6853 C.3     
  20 C20            3.3196   -10.3054     0.4018 C.3     
  21 C21            2.1811   -10.7524     1.3522 C.3     
  22 C22            1.2572    -9.5097     1.3868 C.3     
  23 H23           -2.1073    -2.7994     0.0079 H       
  24 H24           -2.0730    -5.2448    -0.0068 H       
  25 H25            2.2185    -5.1864    -0.0463 H       
  26 H26            2.1864    -2.7409    -0.0390 H       
  27 H27            2.1044    -7.0116    -0.0562 H       
  28 H28            2.1262     1.6233    -0.0092 H       
  29 H29            2.0802     4.0819     0.0042 H       
  30 H30           -0.0695     5.2772     0.0324 H       
  31 H31           -2.1861     4.0239     0.0459 H       
  32 H32           -2.1654     1.5649     0.0253 H       
  33 H33            0.4378    -9.3544    -0.6198 H       
  34 H34            2.3855   -10.1065    -1.5495 H       
  35 H35            3.2239    -8.6343    -0.9832 H       
  36 H36            3.8102   -11.1727    -0.0401 H       
  37 H37            4.0421    -9.6882     0.9358 H       
  38 H38            1.6537   -11.6147     0.9444 H       
  39 H39            2.5713   -10.9714     2.3461 H       
  40 H40            1.6466    -8.7640     2.0799 H       
  41 H41            0.2426    -9.7963     1.6637 H       
@<TRIPOS>BOND
   1    1    2 1
   2    1   13 ar
   3    1   17 ar
   4    2    3 3
   5    3    4 1
   6    4    5 ar
   7    4    9 ar
   8    5    6 ar
   9    5   23 1
  10    6    7 ar
  11    6   24 1
  12    7    8 ar
  13    7   10 1
  14    8    9 ar
  15    8   25 1
  16    9   26 1
  17   10   11 2
  18   10   12 am
  19   12   18 1
  20   12   27 1
  21   13   14 ar
  22   13   28 1
  23   14   15 ar
  24   14   29 1
  25   15   16 ar
  26   15   30 1
  27   16   17 ar
  28   16   31 1
  29   17   32 1
  30   18   19 1
  31   18   22 1
  32   18   33 1
  33   19   20 1
  34   19   34 1
  35   19   35 1
  36   20   21 1
  37   20   36 1
  38   20   37 1
  39   21   22 1
  40   21   38 1
  41   21   39 1
  42   22   40 1
  43   22   41 1

#	End of record

