#	Name: ASD01884666
#	Creating user name:	WinNT
#	Creation time:	15. 06. 2019 19:48

#	Modifying user name:	WinNT
#	Modification time:	15. 06. 2019 19:48

#	Program:	/corina/corina34_cracker 3.40 0067  02.08.2006

@<TRIPOS>MOLECULE
ASD01884666
  53   56    0    0    0
SMALL
NO_CHARGES


@<TRIPOS>ATOM
   1 C1             0.7091     1.5483    -0.1102 C.2     
   2 C2             0.4037     0.1918    -0.0343 C.2     
   3 C3            -0.9317    -0.1946     0.0877 C.2     
   4 C4            -1.9111     0.7434     0.1304 C.2     
   5 N5            -1.6216     2.0653     0.0571 N.am    
   6 C6            -0.3495     2.4924    -0.0554 C.2     
   7 O7            -0.1085     3.6856    -0.1198 O.2     
   8 C8            -2.7093     3.0454     0.1065 C.3     
   9 C9             2.0676     1.9835    -0.2354 C.1     
  10 N10            3.1453     2.3286    -0.3347 N.1     
  11 C11            1.4983    -0.8429    -0.0836 C.3     
  12 C12           -2.9736     3.4412     1.5606 C.3     
  13 C13           -4.1096     4.4648     1.6121 C.3     
  14 C14           -4.3738     4.8606     3.0662 C.3     
  15 C15            1.8924    -1.2245     1.3200 C.ar    
  16 C16            1.2499    -2.2658     1.9505 C.ar    
  17 C17            1.6147    -2.6201     3.2517 C.ar    
  18 C18            3.2764    -0.8639     3.2487 C.ar    
  19 C19            2.9039    -0.5271     1.9644 C.ar    
  20 N20            1.1822    -3.5728     4.1179 N.2     
  21 C21            1.8537    -3.4932     5.2290 C.2     
  22 N22            2.7656    -2.4822     5.1532 N.pl3   
  23 C23            2.6360    -1.9067     3.9019 C.ar    
  24 C24            1.6528    -4.3871     6.4255 C.3     
  25 C25            3.6628    -2.0989     6.1525 C.ar    
  26 C26            3.7954    -0.7547     6.4801 C.ar    
  27 C27            4.6880    -0.3885     7.4722 C.ar    
  28 C28            5.4199    -1.3841     8.1048 C.ar    
  29 C29            5.2371    -2.7001     7.7283 C.ar    
  30 N30            4.3747    -3.0194     6.7825 N.ar    
  31 H31           -1.1862    -1.2425     0.1478 H       
  32 H32           -2.9406     0.4308     0.2243 H       
  33 H33           -2.4279     3.9296    -0.4654 H       
  34 H34           -3.6118     2.6084    -0.3209 H       
  35 H35            1.1401    -1.7258    -0.6131 H       
  36 H36            2.3630    -0.4325    -0.6050 H       
  37 H37           -3.2550     2.5570     2.1324 H       
  38 H38           -2.0711     3.8783     1.9879 H       
  39 H39           -3.8282     5.3490     1.0402 H       
  40 H40           -5.0121     4.0278     1.1848 H       
  41 H41           -3.4714     5.2977     3.4935 H       
  42 H42           -5.1832     5.5898     3.1029 H       
  43 H43           -4.6553     3.9764     3.6381 H       
  44 H44            0.4661    -2.8068     1.4412 H       
  45 H45            4.0644    -0.3169     3.7450 H       
  46 H46            3.4033     0.2848     1.4566 H       
  47 H47            2.3655    -5.2110     6.3873 H       
  48 H48            1.8099    -3.8129     7.3385 H       
  49 H49            0.6378    -4.7842     6.4161 H       
  50 H50            3.2100    -0.0061     5.9670 H       
  51 H51            4.8125     0.6483     7.7478 H       
  52 H52            6.1251    -1.1320     8.8829 H       
  53 H53            5.8045    -3.4781     8.2172 H       
@<TRIPOS>BOND
   1    1    2 2
   2    1    9 1
   3    1    6 1
   4    2    3 1
   5    2   11 1
   6    3    4 2
   7    3   31 1
   8    4    5 1
   9    4   32 1
  10    5    8 1
  11    5    6 am
  12    6    7 2
  13    8   12 1
  14    8   33 1
  15    8   34 1
  16    9   10 3
  17   11   15 1
  18   11   35 1
  19   11   36 1
  20   12   13 1
  21   12   37 1
  22   12   38 1
  23   13   14 1
  24   13   39 1
  25   13   40 1
  26   14   41 1
  27   14   42 1
  28   14   43 1
  29   15   16 ar
  30   15   19 ar
  31   16   17 ar
  32   16   44 1
  33   17   20 1
  34   17   23 ar
  35   18   19 ar
  36   18   23 ar
  37   18   45 1
  38   19   46 1
  39   20   21 2
  40   21   22 1
  41   21   24 1
  42   22   23 1
  43   22   25 1
  44   24   47 1
  45   24   48 1
  46   24   49 1
  47   25   26 ar
  48   25   30 ar
  49   26   27 ar
  50   26   50 1
  51   27   28 ar
  52   27   51 1
  53   28   29 ar
  54   28   52 1
  55   29   30 ar
  56   29   53 1

#	End of record

