#	Name: ASD01915212
#	Creating user name:	WinNT
#	Creation time:	15. 06. 2019 20:05

#	Modifying user name:	WinNT
#	Modification time:	15. 06. 2019 20:05

#	Program:	/corina/corina34_cracker 3.40 0067  02.08.2006

@<TRIPOS>MOLECULE
ASD01915212
  26   27    0    0    0
SMALL
NO_CHARGES


@<TRIPOS>ATOM
   1 C1            -0.0169     1.3928     0.0088 C.ar    
   2 C2             0.0017    -0.0035    -0.0060 C.ar    
   3 C3            -1.1852    -0.7137    -0.0024 C.ar    
   4 C4            -2.3962    -0.0466     0.0160 C.ar    
   5 C5            -2.4270     1.3502     0.0310 C.ar    
   6 C6            -1.2341     2.0707     0.0332 C.ar    
   7 F7            -1.1612    -2.0644    -0.0172 F       
   8 C8             1.2526     2.1503     0.0048 C.2     
   9 N9             2.4292     1.4934    -0.0131 N.am    
  10 O10            1.2351     3.3656     0.0178 O.2     
  11 C11            3.6222     2.2042    -0.1259 C.ar    
  12 C12            4.8353     1.5318    -0.0358 C.ar    
  13 C13            6.0136     2.2493    -0.1498 C.ar    
  14 C14            5.9375     3.6199    -0.3509 C.ar    
  15 C15            4.6963     4.2244    -0.4308 C.ar    
  16 N16            3.5896     3.5131    -0.3233 N.ar    
  17 Cl17           4.5923     5.9389    -0.6823 Cl      
  18 C18           -3.6818     2.0400     0.0495 C.1     
  19 N19           -4.6772     2.5872     0.0641 N.1     
  20 H20            0.9446    -0.5298    -0.0207 H       
  21 H21           -3.3199    -0.6062     0.0184 H       
  22 H22           -1.2531     3.1504     0.0448 H       
  23 H23            2.4455     0.5258     0.0524 H       
  24 H24            4.8583     0.4636     0.1216 H       
  25 H25            6.9707     1.7533    -0.0835 H       
  26 H26            6.8382     4.2087    -0.4437 H       
@<TRIPOS>BOND
   1    1    2 ar
   2    1    8 1
   3    1    6 ar
   4    2    3 ar
   5    2   20 1
   6    3    4 ar
   7    3    7 1
   8    4    5 ar
   9    4   21 1
  10    5    6 ar
  11    5   18 1
  12    6   22 1
  13    8    9 am
  14    8   10 2
  15    9   11 1
  16    9   23 1
  17   11   12 ar
  18   11   16 ar
  19   12   13 ar
  20   12   24 1
  21   13   14 ar
  22   13   25 1
  23   14   15 ar
  24   14   26 1
  25   15   16 ar
  26   15   17 1
  27   18   19 3

#	End of record

