#	Name: ASD05313208
#	Creating user name:	WinNT
#	Creation time:	15. 06. 2019 20:58

#	Modifying user name:	WinNT
#	Modification time:	15. 06. 2019 20:58

#	Program:	/corina/corina34_cracker 3.40 0067  02.08.2006

@<TRIPOS>MOLECULE
ASD05313208
  38   41    0    0    0
SMALL
NO_CHARGES


@<TRIPOS>ATOM
   1 C1            -0.0184     1.5059     0.0103 C.2     
   2 C2             0.0021    -0.0041     0.0020 C.3     
   3 N3             1.0995     2.2738     0.0038 N.pl3   
   4 N4             1.3910    -0.4141    -0.2787 N.am    
   5 C5             2.4769     0.2993     0.4107 C.3     
   6 C6             2.4714     1.7695    -0.0248 C.3     
   7 N7            -0.6474     3.5275     0.0374 N.2     
   8 N8            -1.0454     2.3017     0.0299 N.2     
   9 C9             0.6695     3.5656     0.0240 C.2     
  10 C10            1.5173     4.7778     0.0325 C.ar    
  11 C11            0.9214     6.0389     0.0537 C.ar    
  12 C12            1.7280     7.1632     0.0619 C.ar    
  13 C13            3.1052     6.9910     0.0485 C.ar    
  14 C14            3.6291     5.7112     0.0275 C.ar    
  15 N15            2.8396     4.6569     0.0253 N.ar    
  16 C16            1.6574    -1.4143    -1.1419 C.2     
  17 O17            2.8087    -1.7382    -1.3604 O.2     
  18 C18            0.5513    -2.1166    -1.8219 C.ar    
  19 C19           -0.0271    -3.2476    -1.2385 C.ar    
  20 C20           -1.0610    -3.8989    -1.8805 C.ar    
  21 C21           -1.5258    -3.4356    -3.0989 C.ar    
  22 C22           -0.9597    -2.3182    -3.6837 C.ar    
  23 C23            0.0727    -1.6506    -3.0506 C.ar    
  24 F24            0.6209    -0.5549    -3.6199 F       
  25 Cl25           0.5538    -3.8319     0.2895 Cl      
  26 H26           -0.3092    -0.3857     0.9744 H       
  27 H27           -0.6615    -0.3808    -0.7763 H       
  28 H28            2.3258     0.2385     1.4885 H       
  29 H29            3.4333    -0.1540     0.1502 H       
  30 H30            2.8683     1.8507    -1.0367 H       
  31 H31            3.0886     2.3540     0.6575 H       
  32 H32           -0.1541     6.1363     0.0634 H       
  33 H33            1.2956     8.1527     0.0779 H       
  34 H34            3.7617     7.8485     0.0540 H       
  35 H35            4.7003     5.5744     0.0167 H       
  36 H36           -1.5083    -4.7730    -1.4307 H       
  37 H37           -2.3351    -3.9501    -3.5957 H       
  38 H38           -1.3275    -1.9632    -4.6350 H       
@<TRIPOS>BOND
   1    1    2 1
   2    1    3 1
   3    1    8 2
   4    2    4 1
   5    2   26 1
   6    2   27 1
   7    3    6 1
   8    3    9 1
   9    4    5 1
  10    4   16 am
  11    5    6 1
  12    5   28 1
  13    5   29 1
  14    6   30 1
  15    6   31 1
  16    7    8 1
  17    7    9 2
  18    9   10 1
  19   10   11 ar
  20   10   15 ar
  21   11   12 ar
  22   11   32 1
  23   12   13 ar
  24   12   33 1
  25   13   14 ar
  26   13   34 1
  27   14   15 ar
  28   14   35 1
  29   16   17 2
  30   16   18 1
  31   18   19 ar
  32   18   23 ar
  33   19   20 ar
  34   19   25 1
  35   20   21 ar
  36   20   36 1
  37   21   22 ar
  38   21   37 1
  39   22   23 ar
  40   22   38 1
  41   23   24 1

#	End of record

