#	Name: ASD01940258
#	Creating user name:	WinNT
#	Creation time:	15. 06. 2019 20:12

#	Modifying user name:	WinNT
#	Modification time:	15. 06. 2019 20:12

#	Program:	/corina/corina34_cracker 3.40 0067  02.08.2006

@<TRIPOS>MOLECULE
ASD01940258
  59   61    0    0    0
SMALL
NO_CHARGES


@<TRIPOS>ATOM
   1 C1            -1.3198     0.7001     0.2996 C.ar    
   2 C2            -1.6050     0.9961     1.6234 C.ar    
   3 C3            -2.4803     2.0239     1.9329 C.ar    
   4 C4            -3.0743     2.7602     0.9213 C.ar    
   5 C5            -2.7929     2.4689    -0.4080 C.ar    
   6 C6            -1.9089     1.4397    -0.7202 C.ar    
   7 N7            -1.6214     1.1417    -2.0623 N.am    
   8 S8            -0.0482     1.0259    -2.5661 S.o2    
   9 O9             0.0804     2.0429    -3.5501 O.2     
  10 O10            0.7088     1.0694    -1.3643 O.2     
  11 F11           -2.7556     2.3087     3.2245 F       
  12 F12           -3.9279     3.7618     1.2270 F       
  13 N13           -3.3944     3.2131    -1.4324 N.pl3   
  14 C14           -4.7586     3.0614    -1.6983 C.ar    
  15 C15           -5.5321     4.1696    -2.0298 C.ar    
  16 C16           -5.3437     1.8039    -1.6379 C.ar    
  17 C17           -6.6921     1.6572    -1.9017 C.ar    
  18 C18           -7.4595     2.7603    -2.2261 C.ar    
  19 C19           -6.8803     4.0149    -2.2923 C.ar    
  20 F20           -4.9663     5.3948    -2.0945 F       
  21 C21           -8.9295     2.5949    -2.5139 C.3     
  22 C22            0.0630    -0.6160    -3.3293 C.3     
  23 C23           -0.3323    -1.6923    -2.3162 C.3     
  24 C24           -0.8566    -0.6882    -4.5609 C.3     
  25 C25            1.4986    -0.8678    -3.8346 C.3     
  26 O26           -0.4597    -0.3101    -0.0017 O.3     
  27 C27            0.1701    -0.9749     1.0953 C.3     
  28 C28            1.3042    -1.6541    -5.1548 C.3     
  29 C29            0.0520    -0.9807    -5.7728 C.3     
  30 C30           -0.3980    -3.0515    -3.0156 C.3     
  31 C31           -0.8999    -4.1086    -2.0299 C.3     
  32 O32           -0.9612    -5.3780    -2.6832 O.3     
  33 H33           -1.1441     0.4240     2.4150 H       
  34 H34           -2.3444     1.0036    -2.6940 H       
  35 H35           -2.8640     3.8333    -1.9569 H       
  36 H36           -4.7454     0.9410    -1.3853 H       
  37 H37           -7.1473     0.6789    -1.8546 H       
  38 H38           -7.4829     4.8746    -2.5457 H       
  39 H39           -9.4951     2.7008    -1.5881 H       
  40 H40           -9.2488     3.3578    -3.2240 H       
  41 H41           -9.1079     1.6066    -2.9376 H       
  42 H42            0.4090    -1.7299    -1.5181 H       
  43 H43           -1.3085    -1.4532    -1.8944 H       
  44 H44           -1.5840    -1.4905    -4.4372 H       
  45 H45           -1.3697     0.2634    -4.7000 H       
  46 H46            2.0073     0.0773    -4.0248 H       
  47 H47            2.0576    -1.4646    -3.1139 H       
  48 H48            0.7717    -1.8033     0.7212 H       
  49 H49            0.8110    -0.2715     1.6269 H       
  50 H50           -0.5920    -1.3570     1.7745 H       
  51 H51            2.1695    -1.5342    -5.8068 H       
  52 H52            1.1149    -2.7082    -4.9523 H       
  53 H53           -0.4438    -1.6602    -6.4661 H       
  54 H54            0.3266    -0.0538    -6.2763 H       
  55 H55           -1.0811    -2.9915    -3.8630 H       
  56 H56            0.5957    -3.3268    -3.3689 H       
  57 H57           -0.2168    -4.1686    -1.1826 H       
  58 H58           -1.8936    -3.8333    -1.6767 H       
  59 H59           -1.2720    -6.0973    -2.1165 H       
@<TRIPOS>BOND
   1    1    2 ar
   2    1   26 1
   3    1    6 ar
   4    2    3 ar
   5    2   33 1
   6    3    4 ar
   7    3   11 1
   8    4    5 ar
   9    4   12 1
  10    5    6 ar
  11    5   13 1
  12    6    7 1
  13    7    8 am
  14    7   34 1
  15    8    9 2
  16    8   10 2
  17    8   22 1
  18   13   14 1
  19   13   35 1
  20   14   15 ar
  21   14   16 ar
  22   15   20 1
  23   15   19 ar
  24   16   17 ar
  25   16   36 1
  26   17   18 ar
  27   17   37 1
  28   18   19 ar
  29   18   21 1
  30   19   38 1
  31   21   39 1
  32   21   40 1
  33   21   41 1
  34   22   23 1
  35   22   24 1
  36   22   25 1
  37   23   30 1
  38   23   42 1
  39   23   43 1
  40   24   29 1
  41   24   44 1
  42   24   45 1
  43   25   28 1
  44   25   46 1
  45   25   47 1
  46   26   27 1
  47   27   48 1
  48   27   49 1
  49   27   50 1
  50   28   29 1
  51   28   51 1
  52   28   52 1
  53   29   53 1
  54   29   54 1
  55   30   31 1
  56   30   55 1
  57   30   56 1
  58   31   32 1
  59   31   57 1
  60   31   58 1
  61   32   59 1

#	End of record

