#	Name: ASD01915086
#	Creating user name:	WinNT
#	Creation time:	15. 06. 2019 20:04

#	Modifying user name:	WinNT
#	Modification time:	15. 06. 2019 20:04

#	Program:	/corina/corina34_cracker 3.40 0067  02.08.2006

@<TRIPOS>MOLECULE
ASD01915086
  37   40    0    0    0
SMALL
NO_CHARGES


@<TRIPOS>ATOM
   1 C1             0.1540     1.2296    -0.3835 C.ar    
   2 C2             0.0380    -0.1338    -0.1034 C.ar    
   3 N3            -1.1448    -0.7428    -0.2140 N.ar    
   4 C4            -2.2292    -0.1018    -0.5831 C.ar    
   5 C5            -2.1936     1.2525    -0.8779 C.ar    
   6 C6            -1.0020     1.9361    -0.7765 C.ar    
   7 C7             1.5206     1.7109    -0.2062 C.2     
   8 C8             2.3865     0.7779     0.1826 C.2     
   9 S9             1.6056    -0.7800     0.3676 S.3     
  10 C10            1.9115     3.1213    -0.4396 C.ar    
  11 C11            1.4751     4.1212     0.4288 C.ar    
  12 C12            1.8423     5.4326     0.2072 C.ar    
  13 C13            2.6422     5.7565    -0.8754 C.ar    
  14 C14            3.0783     4.7677    -1.7408 C.ar    
  15 C15            2.7217     3.4523    -1.5251 C.ar    
  16 Cl16           3.0996     7.4087    -1.1491 Cl      
  17 S17            4.0994     1.0715     0.4735 S.o2    
  18 C18            4.9185     0.9652    -1.0829 C.ar    
  19 O19            4.2090     2.4247     0.8930 O.2     
  20 O20            4.5680    -0.0231     1.2491 O.2     
  21 C21            5.5176     2.0856    -1.6265 C.ar    
  22 C22            6.1603     2.0023    -2.8478 C.ar    
  23 C23            6.2036     0.7987    -3.5260 C.ar    
  24 C24            5.6043    -0.3226    -2.9835 C.ar    
  25 C25            4.9668    -0.2415    -1.7585 C.ar    
  26 Cl26           4.2143    -1.6493    -1.0763 Cl      
  27 H27           -3.1638    -0.6378    -0.6586 H       
  28 H28           -3.0931     1.7679    -1.1808 H       
  29 H29           -0.9520     2.9912    -1.0015 H       
  30 H30            0.8505     3.8696     1.2732 H       
  31 H31            1.5049     6.2078     0.8792 H       
  32 H32            3.7021     5.0258    -2.5837 H       
  33 H33            3.0627     2.6817    -2.2005 H       
  34 H34            5.4835     3.0264    -1.0974 H       
  35 H35            6.6284     2.8782    -3.2723 H       
  36 H36            6.7055     0.7344    -4.4802 H       
  37 H37            5.6375    -1.2628    -3.5139 H       
@<TRIPOS>BOND
   1    1    2 ar
   2    1    7 1
   3    1    6 ar
   4    2    3 ar
   5    2    9 1
   6    3    4 ar
   7    4    5 ar
   8    4   27 1
   9    5    6 ar
  10    5   28 1
  11    6   29 1
  12    7    8 2
  13    7   10 1
  14    8    9 1
  15    8   17 1
  16   10   11 ar
  17   10   15 ar
  18   11   12 ar
  19   11   30 1
  20   12   13 ar
  21   12   31 1
  22   13   14 ar
  23   13   16 1
  24   14   15 ar
  25   14   32 1
  26   15   33 1
  27   17   18 1
  28   17   19 2
  29   17   20 2
  30   18   21 ar
  31   18   25 ar
  32   21   22 ar
  33   21   34 1
  34   22   23 ar
  35   22   35 1
  36   23   24 ar
  37   23   36 1
  38   24   25 ar
  39   24   37 1
  40   25   26 1

#	End of record

