#	Name: ASD07300744
#	Creating user name:	WinNT
#	Creation time:	15. 06. 2019 21:10

#	Modifying user name:	WinNT
#	Modification time:	15. 06. 2019 21:10

#	Program:	/corina/corina34_cracker 3.40 0067  02.08.2006

@<TRIPOS>MOLECULE
ASD07300744
  45   48    0    0    0
SMALL
NO_CHARGES


@<TRIPOS>ATOM
   1 C1            -0.0178     1.4600     0.0101 C.2     
   2 C2             0.0021    -0.0041     0.0020 C.2     
   3 N3             1.1861     2.1252     0.0021 N.pl3   
   4 N4             1.1645    -0.6260    -0.0124 N.2     
   5 C5             2.3154     0.0544    -0.0198 C.2     
   6 C6             2.3498     1.3989    -0.0125 C.2     
   7 N7            -0.9944     2.3441     0.0294 N.2     
   8 C8            -0.4750     3.5828     0.0281 C.2     
   9 C9             0.9136     3.4617     0.0119 C.2     
  10 C10           -1.2153     4.8085     0.0453 C.1     
  11 N11           -1.8025     5.7808     0.0588 N.1     
  12 N12           -1.1814    -0.7241     0.0099 N.pl3   
  13 C13           -1.1729    -2.1956     0.0019 C.3     
  14 C14           -2.0831    -2.6905     1.1318 C.3     
  15 O15           -3.3620    -2.0623     1.0153 O.3     
  16 C16           -3.3305    -0.6400     1.1557 C.3     
  17 C17           -2.4841    -0.0401     0.0327 C.3     
  18 N18            2.9301     6.4438    -0.4659 N.pl3   
  19 N19            3.6683     5.7683     0.5127 N.2     
  20 C20            3.0613     4.6489     0.8013 C.2     
  21 C21            1.8966     4.5638     0.0085 C.2     
  22 C22            1.8472     5.7005    -0.7694 C.2     
  23 C23            3.2725     7.7406    -1.0552 C.3     
  24 C24            3.4511     8.7753     0.0576 C.3     
  25 O25            3.7850    10.0402    -0.5173 O.3     
  26 C26            3.9746    11.0826     0.4416 C.3     
  27 H27            3.2464    -0.4928    -0.0312 H       
  28 H28            3.3009     1.9106    -0.0191 H       
  29 H29           -1.5454    -2.5597    -0.9556 H       
  30 H30           -0.1576    -2.5577     0.1632 H       
  31 H31           -2.2004    -3.7716     1.0577 H       
  32 H32           -1.6392    -2.4368     2.0945 H       
  33 H33           -4.3452    -0.2459     1.0988 H       
  34 H34           -2.8911    -0.3788     2.1184 H       
  35 H35           -2.3366     1.0245     0.2143 H       
  36 H36           -2.9908    -0.1835    -0.9217 H       
  37 H37            3.3928     3.9155     1.5215 H       
  38 H38            1.0816     5.9500    -1.4892 H       
  39 H39            4.2008     7.6496    -1.6192 H       
  40 H40            2.4717     8.0592    -1.7225 H       
  41 H41            2.5227     8.8663     0.6215 H       
  42 H42            4.2519     8.4567     0.7249 H       
  43 H43            3.0572    11.2214     1.0135 H       
  44 H44            4.7863    10.8119     1.1169 H       
  45 H45            4.2250    12.0096    -0.0742 H       
@<TRIPOS>BOND
   1    1    2 1
   2    1    3 1
   3    1    7 2
   4    2    4 2
   5    2   12 1
   6    3    6 1
   7    3    9 1
   8    4    5 1
   9    5    6 2
  10    5   27 1
  11    6   28 1
  12    7    8 1
  13    8    9 2
  14    8   10 1
  15    9   21 1
  16   10   11 3
  17   12   13 1
  18   12   17 1
  19   13   14 1
  20   13   29 1
  21   13   30 1
  22   14   15 1
  23   14   31 1
  24   14   32 1
  25   15   16 1
  26   16   17 1
  27   16   33 1
  28   16   34 1
  29   17   35 1
  30   17   36 1
  31   18   19 1
  32   18   22 1
  33   18   23 1
  34   19   20 2
  35   20   21 1
  36   20   37 1
  37   21   22 2
  38   22   38 1
  39   23   24 1
  40   23   39 1
  41   23   40 1
  42   24   25 1
  43   24   41 1
  44   24   42 1
  45   25   26 1
  46   26   43 1
  47   26   44 1
  48   26   45 1

#	End of record

