#	Name: ASD02500894
#	Creating user name:	WinNT
#	Creation time:	15. 06. 2019 20:23

#	Modifying user name:	WinNT
#	Modification time:	15. 06. 2019 20:23

#	Program:	/corina/corina34_cracker 3.40 0067  02.08.2006

@<TRIPOS>MOLECULE
ASD02500894
  16   16    0    0    0
SMALL
NO_CHARGES


@<TRIPOS>ATOM
   1 C1            -0.0165     1.3630     0.0095 C.2     
   2 C2             0.0021    -0.0041     0.0020 C.2     
   3 C3             1.2130     1.9525     0.0010 C.2     
   4 S4             2.4638     0.7169    -0.0176 S.3     
   5 C5             1.2533    -0.5586    -0.0129 C.2     
   6 S6             1.5043     3.6903     0.0066 S.3     
   7 C7             3.3142     3.7056    -0.0101 C.3     
   8 C8             1.5302    -1.9451    -0.0221 C.2     
   9 O9             2.8089    -2.3780    -0.0361 O.3     
  10 O10            0.6157    -2.7485    -0.0173 O.2     
  11 H11           -0.9343     1.9321     0.0171 H       
  12 H12           -0.8991    -0.5992     0.0078 H       
  13 H13            3.6901     3.1906     0.8740 H       
  14 H14            3.6736     3.1991    -0.9059 H       
  15 H15            3.6688     4.7363    -0.0084 H       
  16 H16            2.8981    -3.3409    -0.0415 H       
@<TRIPOS>BOND
   1    1    2 1
   2    1    3 2
   3    1   11 1
   4    2    5 2
   5    2   12 1
   6    3    4 1
   7    3    6 1
   8    4    5 1
   9    5    8 1
  10    6    7 1
  11    7   13 1
  12    7   14 1
  13    7   15 1
  14    8    9 1
  15    8   10 2
  16    9   16 1

#	End of record

