#	Name: ASD03430719
#	Creating user name:	WinNT
#	Creation time:	15. 06. 2019 20:41

#	Modifying user name:	WinNT
#	Modification time:	15. 06. 2019 20:41

#	Program:	/corina/corina34_cracker 3.40 0067  02.08.2006

@<TRIPOS>MOLECULE
ASD03430719
  73   81    0    0    0
SMALL
NO_CHARGES


@<TRIPOS>ATOM
   1 C1             3.5408    -0.4634    -0.5924 C.ar    
   2 C2             2.6995    -1.5436    -0.3751 C.ar    
   3 C3             3.1562    -2.6536     0.3038 C.ar    
   4 C4             4.4599    -2.7009     0.7882 C.ar    
   5 C5             5.3027    -1.6167     0.5653 C.ar    
   6 C6             4.8476    -0.5028    -0.1200 C.ar    
   7 O7             4.6985    -3.8689     1.4508 O.3     
   8 C8             2.5139    -3.9642     0.6716 C.3     
   9 C9             3.7080    -4.8427     1.0697 C.3     
  10 C10            0.3197    -4.3046     1.2929 C.ar    
  11 C11            1.5254    -3.8221     1.7903 C.ar    
  12 C12            1.7402    -4.5598    -0.4695 C.2     
  13 N13            0.4774    -4.7289    -0.0292 N.am    
  14 O14            2.1675    -4.8344    -1.5709 O.2     
  15 C15            1.6098    -3.3417     3.0895 C.ar    
  16 C16            0.4775    -3.3433     3.9044 C.ar    
  17 C17           -0.7194    -3.8231     3.4115 C.ar    
  18 C18           -0.8028    -4.3004     2.1187 C.ar    
  19 C19           -0.6035    -5.2922    -0.8418 C.3     
  20 O20            3.0761     0.6212    -1.2719 O.3     
  21 C21            3.8328     1.8304    -1.1484 C.3     
  22 C22            5.3176     1.4882    -1.3323 C.3     
  23 O23            5.6906     0.5475    -0.3204 O.3     
  24 C24            2.9006    -2.8282     3.6105 C.ar    
  25 C25            3.5341    -1.7432     2.9846 C.ar    
  26 N26            4.6729    -1.2690     3.4225 N.ar    
  27 C27            5.2891    -1.7939     4.4869 C.ar    
  28 C28            4.7123    -2.8919     5.1735 C.ar    
  29 C29            3.4871    -3.4132     4.7231 C.ar    
  30 C30            6.5122    -1.2713     4.9422 C.ar    
  31 C31            7.1210    -1.8223     6.0276 C.ar    
  32 C32            6.5522    -2.9016     6.7011 C.ar    
  33 C33            5.3696    -3.4360     6.2900 C.ar    
  34 C34           -1.9027    -4.6153    -0.4884 C.ar    
  35 C35           -3.0311    -5.3734    -0.2374 C.ar    
  36 C36           -4.2229    -4.7525     0.0867 C.ar    
  37 C37           -4.2862    -3.3735     0.1602 C.ar    
  38 C38           -3.1576    -2.6155    -0.0899 C.ar    
  39 C39           -1.9648    -3.2366    -0.4098 C.ar    
  40 C40           -0.3024    -5.0704    -2.3017 C.ar    
  41 C41           -0.3363    -6.1342    -3.1838 C.ar    
  42 C42           -0.0600    -5.9308    -4.5229 C.ar    
  43 C43            0.2497    -4.6635    -4.9799 C.ar    
  44 C44            0.2828    -3.5995    -4.0980 C.ar    
  45 C45            0.0023    -3.8022    -2.7597 C.ar    
  46 H46            1.6828    -1.5156    -0.7384 H       
  47 H47            6.3191    -1.6439     0.9295 H       
  48 H48            4.0530    -5.4343     0.2217 H       
  49 H49            3.4521    -5.4848     1.9125 H       
  50 H50            0.5370    -2.9712     4.9165 H       
  51 H51           -1.5965    -3.8254     4.0416 H       
  52 H52           -1.7448    -4.6732     1.7447 H       
  53 H53           -0.6859    -6.3613    -0.6462 H       
  54 H54            3.5211     2.5392    -1.9156 H       
  55 H55            3.6750     2.2637    -0.1608 H       
  56 H56            5.4741     1.0480    -2.3171 H       
  57 H57            5.9182     2.3925    -1.2336 H       
  58 H58            3.0712    -1.2891     2.1210 H       
  59 H59            3.0204    -4.2487     5.2235 H       
  60 H60            6.9675    -0.4353     4.4321 H       
  61 H61            8.0607    -1.4167     6.3724 H       
  62 H62            7.0565    -3.3201     7.5595 H       
  63 H63            4.9383    -4.2725     6.8197 H       
  64 H64           -2.9817    -6.4507    -0.2949 H       
  65 H65           -5.1046    -5.3447     0.2821 H       
  66 H66           -5.2175    -2.8884     0.4127 H       
  67 H67           -3.2071    -1.5382    -0.0328 H       
  68 H68           -1.0821    -2.6445    -0.6016 H       
  69 H69           -0.5783    -7.1243    -2.8267 H       
  70 H70           -0.0858    -6.7620    -5.2119 H       
  71 H71            0.4663    -4.5047    -6.0260 H       
  72 H72            0.5251    -2.6095    -4.4550 H       
  73 H73            0.0244    -2.9703    -2.0713 H       
@<TRIPOS>BOND
   1    1    2 ar
   2    1    6 ar
   3    1   20 1
   4    2    3 ar
   5    2   46 1
   6    3    4 ar
   7    3    8 1
   8    4    5 ar
   9    4    7 1
  10    5    6 ar
  11    5   47 1
  12    6   23 1
  13    7    9 1
  14    8    9 1
  15    8   11 1
  16    8   12 1
  17    9   48 1
  18    9   49 1
  19   10   11 ar
  20   10   13 1
  21   10   18 ar
  22   11   15 ar
  23   12   13 am
  24   12   14 2
  25   13   19 1
  26   15   16 ar
  27   15   24 1
  28   16   17 ar
  29   16   50 1
  30   17   18 ar
  31   17   51 1
  32   18   52 1
  33   19   34 1
  34   19   40 1
  35   19   53 1
  36   20   21 1
  37   21   22 1
  38   21   54 1
  39   21   55 1
  40   22   23 1
  41   22   56 1
  42   22   57 1
  43   24   25 ar
  44   24   29 ar
  45   25   26 ar
  46   25   58 1
  47   26   27 ar
  48   27   28 ar
  49   27   30 ar
  50   28   29 ar
  51   28   33 ar
  52   29   59 1
  53   30   31 ar
  54   30   60 1
  55   31   32 ar
  56   31   61 1
  57   32   33 ar
  58   32   62 1
  59   33   63 1
  60   34   35 ar
  61   34   39 ar
  62   35   36 ar
  63   35   64 1
  64   36   37 ar
  65   36   65 1
  66   37   38 ar
  67   37   66 1
  68   38   39 ar
  69   38   67 1
  70   39   68 1
  71   40   41 ar
  72   40   45 ar
  73   41   42 ar
  74   41   69 1
  75   42   43 ar
  76   42   70 1
  77   43   44 ar
  78   43   71 1
  79   44   45 ar
  80   44   72 1
  81   45   73 1

#	End of record

