#	Name: ASD03240228
#	Creating user name:	WinNT
#	Creation time:	15. 06. 2019 20:34

#	Modifying user name:	WinNT
#	Modification time:	15. 06. 2019 20:34

#	Program:	/corina/corina34_cracker 3.40 0067  02.08.2006

@<TRIPOS>MOLECULE
ASD03240228
  43   46    0    0    0
SMALL
NO_CHARGES


@<TRIPOS>ATOM
   1 C1            -0.5271     1.9407    -0.6205 C.ar    
   2 C2            -0.6918     0.5695    -0.5766 C.ar    
   3 C3             0.4218    -0.2505    -0.4837 C.ar    
   4 N4             1.6395     0.2497    -0.4358 N.ar    
   5 C5             1.8552     1.5545    -0.4744 C.ar    
   6 C6             0.7749     2.4517    -0.5688 C.ar    
   7 N7             2.9956     2.3329    -0.4410 N.pl3   
   8 C8             2.5967     3.6438    -0.5136 C.2     
   9 N9             1.2886     3.7047    -0.5886 N.2     
  10 C10            3.5028     4.8093    -0.5069 C.ar    
  11 C11            4.3146     1.8700    -0.3493 C.ar    
  12 C12            4.8728     1.1479    -1.3957 C.ar    
  13 C13            6.1736     0.6933    -1.3025 C.ar    
  14 C14            6.9200     0.9567    -0.1686 C.ar    
  15 C15            6.3670     1.6757     0.8751 C.ar    
  16 C16            5.0684     2.1375     0.7857 C.ar    
  17 N17            4.0715     6.9441     0.3432 N.ar    
  18 C18            3.2564     5.9014     0.3409 C.ar    
  19 C19            4.6248     4.8433    -1.3405 C.ar    
  20 C20            5.4433     5.9592    -1.2969 C.ar    
  21 C21            5.1321     6.9984    -0.4396 C.ar    
  22 C22            8.3390     0.4588    -0.0700 C.3     
  23 N23            2.1534     5.8875     1.1794 N.pl3   
  24 N24            9.2529     1.4744    -0.6096 N.3     
  25 C25           -2.0732    -0.0305    -0.6287 C.3     
  26 H26           -1.3792     2.5998    -0.6972 H       
  27 H27            0.2884    -1.3217    -0.4496 H       
  28 H28            4.2902     0.9415    -2.2814 H       
  29 H29            6.6082     0.1312    -2.1159 H       
  30 H30            6.9524     1.8798     1.7594 H       
  31 H31            4.6383     2.7025     1.5995 H       
  32 H32            4.8478     4.0191    -2.0019 H       
  33 H33            6.3181     6.0173    -1.9275 H       
  34 H34            5.7713     7.8683    -0.4068 H       
  35 H35            8.5849     0.2669     0.9744 H       
  36 H36            8.4412    -0.4630    -0.6427 H       
  37 H37            1.9291     6.6754     1.6989 H       
  38 H38            1.6056     5.0899     1.2469 H       
  39 H39            9.1313     2.3578    -0.1374 H       
  40 H40           10.2114     1.1641    -0.5547 H       
  41 H41           -2.3504    -0.2148    -1.6667 H       
  42 H42           -2.0819    -0.9711    -0.0779 H       
  43 H43           -2.7866     0.6603    -0.1793 H       
@<TRIPOS>BOND
   1    1    2 ar
   2    1    6 ar
   3    1   26 1
   4    2    3 ar
   5    2   25 1
   6    3    4 ar
   7    3   27 1
   8    4    5 ar
   9    5    7 1
  10    5    6 ar
  11    6    9 1
  12    7    8 1
  13    7   11 1
  14    8    9 2
  15    8   10 1
  16   10   19 ar
  17   10   18 ar
  18   11   12 ar
  19   11   16 ar
  20   12   13 ar
  21   12   28 1
  22   13   14 ar
  23   13   29 1
  24   14   15 ar
  25   14   22 1
  26   15   16 ar
  27   15   30 1
  28   16   31 1
  29   17   18 ar
  30   17   21 ar
  31   18   23 1
  32   19   20 ar
  33   19   32 1
  34   20   21 ar
  35   20   33 1
  36   21   34 1
  37   22   24 1
  38   22   35 1
  39   22   36 1
  40   23   37 1
  41   23   38 1
  42   24   39 1
  43   24   40 1
  44   25   41 1
  45   25   42 1
  46   25   43 1

#	End of record

