#	Name: ASD04882038
#	Creating user name:	WinNT
#	Creation time:	15. 06. 2019 20:53

#	Modifying user name:	WinNT
#	Modification time:	15. 06. 2019 20:53

#	Program:	/corina/corina34_cracker 3.40 0067  02.08.2006

@<TRIPOS>MOLECULE
ASD04882038
  78   82    0    0    0
SMALL
NO_CHARGES


@<TRIPOS>ATOM
   1 C1             1.5182     1.4369     1.7948 C.ar    
   2 C2             1.4802     0.0567     1.8140 C.ar    
   3 C3             2.6611    -0.6678     1.9188 C.ar    
   4 C4             3.8762    -0.0005     2.0038 C.ar    
   5 C5             3.9070     1.3802     1.9841 C.ar    
   6 C6             2.7300     2.0981     1.8798 C.ar    
   7 C7             5.1596    -0.7822     2.1181 C.3     
   8 N8             2.6263    -2.0639     1.9389 N.3     
   9 C9             3.2417    -2.6236     0.7275 C.3     
  10 C10            3.2553    -4.1510     0.8245 C.3     
  11 N11            1.8796    -4.6412     0.9874 N.3     
  12 C12            1.2641    -4.0815     2.1988 C.3     
  13 C13            1.2505    -2.5541     2.1018 C.3     
  14 C14            1.8448    -6.0330     1.0075 C.ar    
  15 C15            2.1823    -6.7562    -0.1400 C.ar    
  16 C16            2.1482    -8.1378    -0.1195 C.ar    
  17 C17            1.7760    -8.8073     1.0495 C.ar    
  18 C18            1.4397    -8.0780     2.1935 C.ar    
  19 C19            1.4801    -6.7016     2.1706 C.ar    
  20 C20            1.7377   -10.2819     1.0759 C.2     
  21 N21            1.3787   -10.9266     2.2037 N.am    
  22 O22            2.0300   -10.9156     0.0801 O.2     
  23 C23            1.3406   -12.3909     2.2299 C.3     
  24 C24            0.9053   -12.8650     3.6179 C.3     
  25 C25            0.8655   -14.3942     3.6453 C.3     
  26 N26            0.4487   -14.8482     4.9744 N.am    
  27 C27           -0.9451   -15.0810     5.3705 C.3     
  28 C28           -0.9349   -15.1122     6.9150 C.3     
  29 C29            0.5203   -15.5424     7.2120 C.3     
  30 C30            1.2942   -15.1105     5.9859 C.2     
  31 O31            2.5013   -15.0085     5.9266 O.2     
  32 N32            2.5543    -6.0814    -1.3098 N.am    
  33 C33            3.3595    -6.6829    -2.2077 C.2     
  34 O34            3.6992    -7.8383    -2.0414 O.2     
  35 C35            3.8297    -5.9376    -3.3952 C.ar    
  36 C36            4.6640    -6.5610    -4.3255 C.ar    
  37 C37            3.4347    -4.6123    -3.5891 C.ar    
  38 C38            3.8718    -3.9183    -4.6955 C.ar    
  39 C39            4.7106    -4.5400    -5.6234 C.ar    
  40 C40            5.1020    -5.8671    -5.4315 C.ar    
  41 C41            5.1651    -3.8186    -6.7738 C.1     
  42 N42            5.5257    -3.2463    -7.6865 N.1     
  43 H43            0.6010     2.0005     1.7089 H       
  44 H44            0.5336    -0.4591     1.7480 H       
  45 H45            4.8516     1.8997     2.0502 H       
  46 H46            2.7569     3.1777     1.8642 H       
  47 H47            5.5095    -1.0539     1.1222 H       
  48 H48            5.9140    -0.1715     2.6141 H       
  49 H49            4.9837    -1.6865     2.7007 H       
  50 H50            2.6657    -2.3199    -0.1466 H       
  51 H51            4.2637    -2.2560     0.6357 H       
  52 H52            3.6851    -4.5694    -0.0857 H       
  53 H53            3.8539    -4.4556     1.6830 H       
  54 H54            0.2421    -4.4492     2.2906 H       
  55 H55            1.8401    -4.3852     3.0729 H       
  56 H56            0.8207    -2.1358     3.0120 H       
  57 H57            0.6519    -2.2496     1.2433 H       
  58 H58            2.4082    -8.6988    -1.0050 H       
  59 H59            1.1517    -8.5943     3.0972 H       
  60 H60            1.2202    -6.1401     3.0558 H       
  61 H61            1.1455   -10.4211     2.9980 H       
  62 H62            0.6308   -12.7493     1.4844 H       
  63 H63            2.3322   -12.7842     2.0060 H       
  64 H64            1.6151   -12.5066     4.3634 H       
  65 H65           -0.0863   -12.4717     3.8418 H       
  66 H66            0.1557   -14.7526     2.8998 H       
  67 H67            1.8572   -14.7875     3.4214 H       
  68 H68           -1.5792   -14.2694     5.0138 H       
  69 H69           -1.2949   -16.0351     4.9763 H       
  70 H70           -1.1413   -14.1242     7.3264 H       
  71 H71           -1.6443   -15.8473     7.2950 H       
  72 H72            0.8943   -15.0347     8.1011 H       
  73 H73            0.5808   -16.6237     7.3352 H       
  74 H74            2.2324    -5.1811    -1.4736 H       
  75 H75            4.9660    -7.5873    -4.1774 H       
  76 H76            2.7862    -4.1317    -2.8717 H       
  77 H77            3.5657    -2.8936    -4.8458 H       
  78 H78            5.7505    -6.3480    -6.1488 H       
@<TRIPOS>BOND
   1    1    2 ar
   2    1    6 ar
   3    1   43 1
   4    2    3 ar
   5    2   44 1
   6    3    4 ar
   7    3    8 1
   8    4    5 ar
   9    4    7 1
  10    5    6 ar
  11    5   45 1
  12    6   46 1
  13    7   47 1
  14    7   48 1
  15    7   49 1
  16    8    9 1
  17    8   13 1
  18    9   10 1
  19    9   50 1
  20    9   51 1
  21   10   11 1
  22   10   52 1
  23   10   53 1
  24   11   12 1
  25   11   14 1
  26   12   13 1
  27   12   54 1
  28   12   55 1
  29   13   56 1
  30   13   57 1
  31   14   15 ar
  32   14   19 ar
  33   15   16 ar
  34   15   32 1
  35   16   17 ar
  36   16   58 1
  37   17   18 ar
  38   17   20 1
  39   18   19 ar
  40   18   59 1
  41   19   60 1
  42   20   21 am
  43   20   22 2
  44   21   23 1
  45   21   61 1
  46   23   24 1
  47   23   62 1
  48   23   63 1
  49   24   25 1
  50   24   64 1
  51   24   65 1
  52   25   26 1
  53   25   66 1
  54   25   67 1
  55   26   27 1
  56   26   30 am
  57   27   28 1
  58   27   68 1
  59   27   69 1
  60   28   29 1
  61   28   70 1
  62   28   71 1
  63   29   30 1
  64   29   72 1
  65   29   73 1
  66   30   31 2
  67   32   33 am
  68   32   74 1
  69   33   34 2
  70   33   35 1
  71   35   36 ar
  72   35   37 ar
  73   36   40 ar
  74   36   75 1
  75   37   38 ar
  76   37   76 1
  77   38   39 ar
  78   38   77 1
  79   39   40 ar
  80   39   41 1
  81   40   78 1
  82   41   42 3

#	End of record

