#	Name: ASD07930993
#	Creating user name:	WinNT
#	Creation time:	15. 06. 2019 21:13

#	Modifying user name:	WinNT
#	Modification time:	15. 06. 2019 21:13

#	Program:	/corina/corina34_cracker 3.40 0067  02.08.2006

@<TRIPOS>MOLECULE
ASD07930993
  55   60    0    0    0
SMALL
NO_CHARGES


@<TRIPOS>ATOM
   1 C1             0.0048     1.3967     0.0115 C.ar    
   2 N2             0.0177    -0.0039     0.0033 N.am    
   3 N3            -0.0735    -0.8097     1.1411 N.2     
   4 C4            -0.0352    -2.0721     0.8247 C.2     
   5 C5             0.0926    -2.1539    -0.6482 C.2     
   6 C6             0.1142    -0.7681    -1.1060 C.2     
   7 O7             0.2084    -0.3783    -2.2585 O.2     
   8 C8            -0.0878    -3.3453     1.5685 C.ar    
   9 C9            -0.0143    -4.5446     0.8405 C.ar    
  10 N10            0.1049    -4.5233    -0.5384 N.pl3   
  11 C11            0.1546    -3.3860    -1.2504 C.2     
  12 C12           -0.2066    -3.3732     2.9541 C.ar    
  13 C13           -0.2520    -4.5852     3.6121 C.ar    
  14 C14           -0.1797    -5.7697     2.8971 C.ar    
  15 C15           -0.0622    -5.7552     1.5227 C.ar    
  16 C16            0.1790    -5.7997    -1.2536 C.3     
  17 C17            1.1994     2.1034     0.0137 C.ar    
  18 C18            1.1836     3.4850     0.0213 C.ar    
  19 C19           -0.0201     4.1649     0.0268 C.ar    
  20 C20           -1.2134     3.4655     0.0247 C.ar    
  21 C21           -1.2054     2.0829     0.0118 C.ar    
  22 F22           -2.3707     1.3994     0.0097 F       
  23 C23           -1.0614    -5.9645    -2.1361 C.3     
  24 C24            1.4300    -5.8198    -2.1362 C.3     
  25 C25            1.4698    -7.1297    -2.9265 C.3     
  26 N26            0.2625    -7.2399    -3.7551 N.3     
  27 C27           -0.9494    -7.2702    -2.9263 C.3     
  28 C28            0.3272    -8.3551    -4.5850 C.ar    
  29 C29            1.4336    -9.2039    -4.5580 C.ar    
  30 C30           -0.7153    -8.6564    -5.4613 C.ar    
  31 C31           -0.6123    -9.7707    -6.2670 C.ar    
  32 N32            0.4542   -10.5468    -6.2156 N.ar    
  33 C33            1.4590   -10.2984    -5.3964 C.ar    
  34 H34            0.2480    -3.4420    -2.3249 H       
  35 H35           -0.2626    -2.4504     3.5124 H       
  36 H36           -0.3438    -4.6105     4.6879 H       
  37 H37           -0.2156    -6.7135     3.4209 H       
  38 H38           -0.0067    -6.6850     0.9761 H       
  39 H39            0.2260    -6.6178    -0.5348 H       
  40 H40            2.1407     1.5738     0.0097 H       
  41 H41            2.1132     4.0347     0.0233 H       
  42 H42           -0.0288     5.2449     0.0331 H       
  43 H43           -2.1520     3.9996     0.0294 H       
  44 H44           -1.9527    -5.9938    -1.5093 H       
  45 H45           -1.1299    -5.1251    -2.8280 H       
  46 H46            1.4008    -4.9781    -2.8282 H       
  47 H47            2.3188    -5.7457    -1.5095 H       
  48 H48            2.3519    -7.1410    -3.5666 H       
  49 H49            1.5130    -7.9704    -2.2340 H       
  50 H50           -0.8949    -8.1103    -2.2339 H       
  51 H51           -1.8244    -7.3836    -3.5664 H       
  52 H52            2.2591    -9.0064    -3.8902 H       
  53 H53           -1.5910    -8.0260    -5.5079 H       
  54 H54           -1.4146   -10.0118    -6.9486 H       
  55 H55            2.3137   -10.9585    -5.3856 H       
@<TRIPOS>BOND
   1    1    2 1
   2    1   17 ar
   3    1   21 ar
   4    2    3 1
   5    2    6 am
   6    3    4 2
   7    4    5 1
   8    4    8 1
   9    5    6 1
  10    5   11 2
  11    6    7 2
  12    8    9 ar
  13    8   12 ar
  14    9   10 1
  15    9   15 ar
  16   10   11 1
  17   10   16 1
  18   11   34 1
  19   12   13 ar
  20   12   35 1
  21   13   14 ar
  22   13   36 1
  23   14   15 ar
  24   14   37 1
  25   15   38 1
  26   16   23 1
  27   16   24 1
  28   16   39 1
  29   17   18 ar
  30   17   40 1
  31   18   19 ar
  32   18   41 1
  33   19   20 ar
  34   19   42 1
  35   20   21 ar
  36   20   43 1
  37   21   22 1
  38   23   27 1
  39   23   44 1
  40   23   45 1
  41   24   25 1
  42   24   46 1
  43   24   47 1
  44   25   26 1
  45   25   48 1
  46   25   49 1
  47   26   27 1
  48   26   28 1
  49   27   50 1
  50   27   51 1
  51   28   30 ar
  52   28   29 ar
  53   29   33 ar
  54   29   52 1
  55   30   31 ar
  56   30   53 1
  57   31   32 ar
  58   31   54 1
  59   32   33 ar
  60   33   55 1

#	End of record

