#	Name: ASD01200027
#	Creating user name:	WinNT
#	Creation time:	15. 06. 2019 19:08

#	Modifying user name:	WinNT
#	Modification time:	15. 06. 2019 19:08

#	Program:	/corina/corina34_cracker 3.40 0067  02.08.2006

@<TRIPOS>MOLECULE
ASD01200027
  39   42    0    0    0
SMALL
NO_CHARGES


@<TRIPOS>ATOM
   1 C1            -0.0426     1.4141    -0.2883 C.ar    
   2 C2            -0.0135     0.0181    -0.2592 C.ar    
   3 C3            -1.1973    -0.6827    -0.1598 C.ar    
   4 C4            -2.3943     0.0354    -0.0911 C.ar    
   5 C5            -2.3500     1.4348    -0.1254 C.ar    
   6 N6            -1.1845     2.0707    -0.2170 N.ar    
   7 C7            -3.6038     2.2095    -0.0539 C.2     
   8 N8            -3.5665     3.5564    -0.0866 N.am    
   9 C9            -4.7465     4.2855    -0.0193 C.2     
  10 S10           -3.9364    -0.8073     0.0362 S.3     
  11 C11           -3.4774    -2.5006    -0.1275 C.ar    
  12 S12            1.4685     2.3115    -0.4146 S.3     
  13 C13            0.9336     3.9904    -0.4144 C.2     
  14 N14           -4.8222     5.5796    -0.0428 N.2     
  15 C15           -6.0292     6.1089     0.0303 C.2     
  16 C16           -7.0204     5.2199     0.1199 C.2     
  17 S17           -6.3114     3.6072     0.0991 S.3     
  18 N18            1.7304     5.0963    -0.4951 N.pl3   
  19 C19            0.8820     6.1675    -0.4601 C.2     
  20 N20           -0.3305     5.6992    -0.3648 N.2     
  21 N21           -0.3065     4.4143    -0.3423 N.2     
  22 C22           -3.4370    -3.3221     0.9912 C.ar    
  23 C23           -3.0766    -4.6495     0.8595 C.ar    
  24 C24           -2.7563    -5.1612    -0.3842 C.ar    
  25 C25           -2.7949    -4.3470    -1.5021 C.ar    
  26 C26           -3.1600    -3.0195    -1.3793 C.ar    
  27 O27           -4.6707     1.6328     0.0344 O.2     
  28 F28           -3.1978    -2.2243    -2.4708 F       
  29 H29            0.9280    -0.5082    -0.3145 H       
  30 H30           -1.1993    -1.7624    -0.1360 H       
  31 H31           -2.7155     4.0165    -0.1571 H       
  32 H32           -6.2006     7.1751     0.0192 H       
  33 H33           -8.0735     5.4490     0.1893 H       
  34 H34            2.6978     5.1174    -0.5629 H       
  35 H35            1.1642     7.2091    -0.5034 H       
  36 H36           -3.6866    -2.9238     1.9635 H       
  37 H37           -3.0449    -5.2883     1.7297 H       
  38 H38           -2.4747    -6.1991    -0.4834 H       
  39 H39           -2.5440    -4.7501    -2.4721 H       
@<TRIPOS>BOND
   1    1    2 ar
   2    1   12 1
   3    1    6 ar
   4    2    3 ar
   5    2   29 1
   6    3    4 ar
   7    3   30 1
   8    4    5 ar
   9    4   10 1
  10    5    6 ar
  11    5    7 1
  12    7    8 am
  13    7   27 2
  14    8    9 1
  15    8   31 1
  16    9   14 2
  17    9   17 1
  18   10   11 1
  19   11   22 ar
  20   11   26 ar
  21   12   13 1
  22   13   18 1
  23   13   21 2
  24   14   15 1
  25   15   16 2
  26   15   32 1
  27   16   17 1
  28   16   33 1
  29   18   19 1
  30   18   34 1
  31   19   20 2
  32   19   35 1
  33   20   21 1
  34   22   23 ar
  35   22   36 1
  36   23   24 ar
  37   23   37 1
  38   24   25 ar
  39   24   38 1
  40   25   26 ar
  41   25   39 1
  42   26   28 1

#	End of record

