#	Name: ASD00170019
#	Creating user name:	WinNT
#	Creation time:	15. 06. 2019 18:31

#	Modifying user name:	WinNT
#	Modification time:	15. 06. 2019 18:31

#	Program:	/corina/corina34_cracker 3.40 0067  02.08.2006

@<TRIPOS>MOLECULE
ASD00170019
  35   37    0    0    0
SMALL
NO_CHARGES


@<TRIPOS>ATOM
   1 C1            -0.0697     1.3005    -0.3506 C.2     
   2 N2            -0.0484    -0.0060    -0.3344 N.2     
   3 N3            -1.1645    -0.7657     0.0095 N.am    
   4 C4            -2.3404    -0.2158     0.3482 C.2     
   5 C5            -2.4909     1.2041     0.3678 C.2     
   6 C6            -1.3221     2.0172     0.0143 C.2     
   7 O7            -3.2830    -0.9302     0.6395 O.2     
   8 C8            -3.5881     1.9741     0.6784 C.2     
   9 S9            -3.2412     3.6341     0.5462 S.3     
  10 C10           -1.5828     3.3358     0.0672 C.2     
  11 N11           -4.8188     1.4625     1.0508 N.pl3   
  12 C12            1.1389     2.0586    -0.7214 C.2     
  13 O13            2.2719     1.4042    -1.0455 O.3     
  14 O14            1.1138     3.2735    -0.7349 O.2     
  15 C15           -1.0546    -2.1600     0.0010 C.ar    
  16 C16           -0.5042    -2.8081    -1.0977 C.ar    
  17 C17           -0.3970    -4.1848    -1.1032 C.ar    
  18 C18           -0.8375    -4.9187    -0.0162 C.ar    
  19 C19           -1.3865    -4.2763     1.0792 C.ar    
  20 C20           -1.4903    -2.8994     1.0935 C.ar    
  21 C21            3.4230     2.2151    -1.4002 C.3     
  22 C22            4.6054     1.3036    -1.7345 C.3     
  23 I23           -0.6735    -7.0072    -0.0294 I       
  24 H24           -0.8637     4.1097    -0.1574 H       
  25 H25           -4.9485     0.5028     1.1060 H       
  26 H26           -5.5517     2.0636     1.2568 H       
  27 H27           -0.1608    -2.2358    -1.9468 H       
  28 H28            0.0308    -4.6892    -1.9570 H       
  29 H29           -1.7298    -4.8519     1.9261 H       
  30 H30           -1.9190    -2.3984     1.9489 H       
  31 H31            3.1812     2.8295    -2.2675 H       
  32 H32            3.6864     2.8589    -0.5610 H       
  33 H33            4.8471     0.6892    -0.8672 H       
  34 H34            4.3420     0.6598    -2.5737 H       
  35 H35            5.4695     1.9123    -2.0008 H       
@<TRIPOS>BOND
   1    1    2 2
   2    1   12 1
   3    1    6 1
   4    2    3 1
   5    3    4 am
   6    3   15 1
   7    4    5 1
   8    4    7 2
   9    5    6 1
  10    5    8 2
  11    6   10 2
  12    8    9 1
  13    8   11 1
  14    9   10 1
  15   10   24 1
  16   11   25 1
  17   11   26 1
  18   12   13 1
  19   12   14 2
  20   13   21 1
  21   15   16 ar
  22   15   20 ar
  23   16   17 ar
  24   16   27 1
  25   17   18 ar
  26   17   28 1
  27   18   19 ar
  28   18   23 1
  29   19   20 ar
  30   19   29 1
  31   20   30 1
  32   21   22 1
  33   21   31 1
  34   21   32 1
  35   22   33 1
  36   22   34 1
  37   22   35 1

#	End of record

