#	Name: ASD03092388
#	Creating user name:	WinNT
#	Creation time:	15. 06. 2019 20:32

#	Modifying user name:	WinNT
#	Modification time:	15. 06. 2019 20:32

#	Program:	/corina/corina34_cracker 3.40 0067  02.08.2006

@<TRIPOS>MOLECULE
ASD03092388
  56   59    0    0    0
SMALL
NO_CHARGES


@<TRIPOS>ATOM
   1 C1             0.3380     1.9854     0.1443 C.2     
   2 C2             0.5501     0.5256     0.2225 C.ar    
   3 C3             1.8460     0.0053     0.2341 C.ar    
   4 C4             2.0381    -1.3576     0.3077 C.ar    
   5 C5             0.9476    -2.2116     0.3696 C.ar    
   6 C6            -0.3412    -1.7004     0.3585 C.ar    
   7 C7            -0.5447    -0.3388     0.2909 C.ar    
   8 O8             1.2926     2.7362     0.0899 O.2     
   9 N9            -0.9137     2.4847     0.1277 N.am    
  10 F10            1.1415    -3.5468     0.4407 F       
  11 C11           -1.1240     3.9324     0.0501 C.3     
  12 S12           -4.9831     4.7265    -0.6389 S.3     
  13 C13           -4.5795     4.5785     1.0156 C.2     
  14 N14           -3.3130     4.3217     1.1493 N.2     
  15 C15           -2.6022     4.2259     0.0467 C.2     
  16 C16           -3.3086     4.4126    -1.0878 C.2     
  17 C17           -2.5484     5.2836    -4.6610 C.ar    
  18 C18           -3.0703     5.3707    -3.3884 C.ar    
  19 C19           -2.7731     4.3622    -2.4622 C.ar    
  20 C20           -1.9527     3.3046    -2.8774 C.ar    
  21 C21           -1.4745     3.2981    -4.1696 C.ar    
  22 N22           -1.7793     4.2693    -5.0106 N.ar    
  23 C23           -2.8650     6.3581    -5.6692 C.3     
  24 N24           -5.4733     4.7134     2.0623 N.3     
  25 C25           -6.8265     5.0021     1.5656 C.3     
  26 C26           -7.7691     5.2024     2.7553 C.3     
  27 O27           -7.7340     4.0387     3.5860 O.3     
  28 C28           -6.4312     3.7285     4.0877 C.3     
  29 C29           -5.4751     3.5133     2.9115 C.3     
  30 C30           -6.4987     2.4537     4.9310 C.3     
  31 C31           -9.1947     5.4239     2.2460 C.3     
  32 H32            2.6961     0.6697     0.1851 H       
  33 H33            3.0399    -1.7610     0.3167 H       
  34 H34           -1.1872    -2.3700     0.4069 H       
  35 H35           -1.5489     0.0586     0.2864 H       
  36 H36           -1.6754     1.8854     0.1671 H       
  37 H37           -0.6600     4.4136     0.9111 H       
  38 H38           -0.6753     4.3162    -0.8661 H       
  39 H39           -3.6985     6.2037    -3.1092 H       
  40 H40           -1.6989     2.5070    -2.1949 H       
  41 H41           -0.8412     2.4877    -4.4990 H       
  42 H42           -2.1137     7.1456    -5.6090 H       
  43 H43           -2.8617     5.9286    -6.6710 H       
  44 H44           -3.8485     6.7772    -5.4567 H       
  45 H45           -6.8065     5.9086     0.9605 H       
  46 H46           -7.1777     4.1670     0.9596 H       
  47 H47           -7.4487     6.0705     3.3313 H       
  48 H48           -6.0719     4.5538     4.7025 H       
  49 H49           -5.8047     2.6543     2.3270 H       
  50 H50           -4.4686     3.3329     3.2889 H       
  51 H51           -6.8563     1.6288     4.3147 H       
  52 H52           -5.5055     2.2178     5.3131 H       
  53 H53           -7.1825     2.6063     5.7661 H       
  54 H54           -9.5146     4.5543     1.6719 H       
  55 H55           -9.8652     5.5664     3.0935 H       
  56 H56           -9.2200     6.3087     1.6100 H       
@<TRIPOS>BOND
   1    1    2 1
   2    1    8 2
   3    1    9 am
   4    2    3 ar
   5    2    7 ar
   6    3    4 ar
   7    3   32 1
   8    4    5 ar
   9    4   33 1
  10    5    6 ar
  11    5   10 1
  12    6    7 ar
  13    6   34 1
  14    7   35 1
  15    9   11 1
  16    9   36 1
  17   11   15 1
  18   11   37 1
  19   11   38 1
  20   12   13 1
  21   12   16 1
  22   13   14 2
  23   13   24 1
  24   14   15 1
  25   15   16 2
  26   16   19 1
  27   17   18 ar
  28   17   22 ar
  29   17   23 1
  30   18   19 ar
  31   18   39 1
  32   19   20 ar
  33   20   21 ar
  34   20   40 1
  35   21   22 ar
  36   21   41 1
  37   23   42 1
  38   23   43 1
  39   23   44 1
  40   24   25 1
  41   24   29 1
  42   25   26 1
  43   25   45 1
  44   25   46 1
  45   26   27 1
  46   26   31 1
  47   26   47 1
  48   27   28 1
  49   28   29 1
  50   28   30 1
  51   28   48 1
  52   29   49 1
  53   29   50 1
  54   30   51 1
  55   30   52 1
  56   30   53 1
  57   31   54 1
  58   31   55 1
  59   31   56 1

#	End of record

