#	Name: ASD05720255
#	Creating user name:	WinNT
#	Creation time:	15. 06. 2019 21:02

#	Modifying user name:	WinNT
#	Modification time:	15. 06. 2019 21:02

#	Program:	/corina/corina34_cracker 3.40 0067  02.08.2006

@<TRIPOS>MOLECULE
ASD05720255
  74   78    0    0    0
SMALL
NO_CHARGES


@<TRIPOS>ATOM
   1 C1             0.5116     1.0241     1.1162 C.2     
   2 N2             0.4120    -0.2388     0.6810 N.am    
   3 C3             1.6580    -0.6134    -0.0042 C.3     
   4 C4             2.5297     0.6535     0.0959 C.3     
   5 N5             1.6822     1.6074     0.8269 N.am    
   6 O6            -0.3815     1.5912     1.7151 O.2     
   7 C7            -1.6780    -3.1431     0.6624 C.2     
   8 N8            -0.6244    -2.3356     0.5059 N.2     
   9 C9            -0.6924    -1.0633     0.8501 C.2     
  10 C10           -1.8855    -0.5410     1.3897 C.2     
  11 C11           -2.9534    -1.3552     1.5494 C.2     
  12 N12           -2.8526    -2.6688     1.1836 N.pl3   
  13 N13           -3.7639    -3.7299     1.2270 N.2     
  14 C14           -3.1916    -4.8114     0.7582 C.2     
  15 C15           -1.8788    -4.5013     0.3822 C.2     
  16 C16           -0.8881    -5.4342    -0.1999 C.ar    
  17 C17           -0.6490    -6.6678     0.4083 C.ar    
  18 C18            0.2725    -7.5354    -0.1341 C.ar    
  19 C19            0.9673    -7.1817    -1.2907 C.ar    
  20 C20            0.7289    -5.9493    -1.8988 C.ar    
  21 C21           -0.1965    -5.0832    -1.3608 C.ar    
  22 N22            3.4789    -9.0342    -3.1449 N.pl3   
  23 N23            2.6756    -7.8979    -2.9559 N.2     
  24 C24            1.9604    -8.1162    -1.8737 C.2     
  25 N25            2.2780    -9.3231    -1.3855 N.2     
  26 C26            3.1871    -9.8804    -2.1409 C.2     
  27 C27            4.4412    -9.2569    -4.2269 C.3     
  28 O28            5.0548   -10.5370    -4.0627 O.3     
  29 C29            6.0157   -10.8547    -5.0715 C.3     
  30 C30            6.6048   -12.2397    -4.7967 C.3     
  31 Si31           7.8575   -12.6539    -6.1119 Si      
  32 C32            9.2208   -11.3843    -6.0929 C.3     
  33 C33            8.5748   -14.3404    -5.7772 C.3     
  34 C34            7.0297   -12.6512    -7.7809 C.3     
  35 C35            2.0584     2.9779     1.1823 C.3     
  36 C36            1.3821    -0.9611    -1.4684 C.3     
  37 C37            0.5227    -2.2250    -1.5392 C.3     
  38 C38            0.6402     0.1981    -2.1368 C.3     
  39 H39            2.1381    -1.4493     0.5046 H       
  40 H40            3.4426     0.4467     0.6544 H       
  41 H41            2.7659     1.0348    -0.8975 H       
  42 H42           -1.9460     0.4994     1.6732 H       
  43 H43           -3.8753    -0.9723     1.9615 H       
  44 H44           -3.6572    -5.7820     0.6724 H       
  45 H45           -1.1864    -6.9415     1.3042 H       
  46 H46            0.4576    -8.4898     0.3363 H       
  47 H47            1.2673    -5.6761    -2.7943 H       
  48 H48           -0.3839    -4.1307    -1.8341 H       
  49 H49            3.6286   -10.8538    -1.9856 H       
  50 H50            3.9242    -9.2222    -5.1859 H       
  51 H51            5.2062    -8.4810    -4.1983 H       
  52 H52            5.5313   -10.8531    -6.0480 H       
  53 H53            6.8133   -10.1119    -5.0604 H       
  54 H54            7.0892   -12.2413    -3.8202 H       
  55 H55            5.8072   -12.9825    -4.8078 H       
  56 H56            9.7052   -11.3859    -5.1164 H       
  57 H57            9.9537   -11.6266    -6.8624 H       
  58 H58            8.8011   -10.3976    -6.2887 H       
  59 H59            7.7772   -15.0832    -5.7884 H       
  60 H60            9.3078   -14.5827    -6.5468 H       
  61 H61            9.0592   -14.3420    -4.8008 H       
  62 H62            6.6100   -11.6645    -7.9767 H       
  63 H63            7.7626   -12.8936    -8.5504 H       
  64 H64            6.2320   -13.3940    -7.7920 H       
  65 H65            1.2376     3.4521     1.7204 H       
  66 H66            2.9451     2.9586     1.8159 H       
  67 H67            2.2724     3.5428     0.2750 H       
  68 H68            2.3262    -1.1343    -1.9849 H       
  69 H69            0.9405    -2.9858    -0.8799 H       
  70 H70           -0.4944    -1.9908    -1.2252 H       
  71 H71            0.5100    -2.5988    -2.5631 H       
  72 H72            1.2525     1.0985    -2.0864 H       
  73 H73            0.4437    -0.0496    -3.1799 H       
  74 H74           -0.3039     0.3713    -1.6203 H       
@<TRIPOS>BOND
   1    1    2 am
   2    1    5 am
   3    1    6 2
   4    2    3 1
   5    2    9 1
   6    3    4 1
   7    3   36 1
   8    3   39 1
   9    4    5 1
  10    4   40 1
  11    4   41 1
  12    5   35 1
  13    7    8 1
  14    7   12 1
  15    7   15 2
  16    8    9 2
  17    9   10 1
  18   10   11 2
  19   10   42 1
  20   11   12 1
  21   11   43 1
  22   12   13 1
  23   13   14 2
  24   14   15 1
  25   14   44 1
  26   15   16 1
  27   16   17 ar
  28   16   21 ar
  29   17   18 ar
  30   17   45 1
  31   18   19 ar
  32   18   46 1
  33   19   20 ar
  34   19   24 1
  35   20   21 ar
  36   20   47 1
  37   21   48 1
  38   22   23 1
  39   22   26 1
  40   22   27 1
  41   23   24 2
  42   24   25 1
  43   25   26 2
  44   26   49 1
  45   27   28 1
  46   27   50 1
  47   27   51 1
  48   28   29 1
  49   29   30 1
  50   29   52 1
  51   29   53 1
  52   30   31 1
  53   30   54 1
  54   30   55 1
  55   31   32 1
  56   31   33 1
  57   31   34 1
  58   32   56 1
  59   32   57 1
  60   32   58 1
  61   33   59 1
  62   33   60 1
  63   33   61 1
  64   34   62 1
  65   34   63 1
  66   34   64 1
  67   35   65 1
  68   35   66 1
  69   35   67 1
  70   36   37 1
  71   36   38 1
  72   36   68 1
  73   37   69 1
  74   37   70 1
  75   37   71 1
  76   38   72 1
  77   38   73 1
  78   38   74 1

#	End of record

