#	Name: ASD07030007
#	Creating user name:	WinNT
#	Creation time:	15. 06. 2019 21:08

#	Modifying user name:	WinNT
#	Modification time:	15. 06. 2019 21:08

#	Program:	/corina/corina34_cracker 3.40 0067  02.08.2006

@<TRIPOS>MOLECULE
ASD07030007
  55   57    0    0    0
SMALL
NO_CHARGES


@<TRIPOS>ATOM
   1 C1            -0.0311     1.5959    -0.1010 C.3     
   2 C2            -0.0259     0.0856    -0.3461 C.3     
   3 N3             1.3522     2.0819    -0.0103 N.3     
   4 N4            -1.4092    -0.4004    -0.4368 N.3     
   5 C5            -1.4435    -1.8500    -0.6723 C.3     
   6 C6            -2.6944    -2.6090    -0.2251 C.3     
   7 C7            -2.4342    -2.3732    -1.7143 C.3     
   8 C8            -2.5081    -4.0090     0.3007 C.ar    
   9 C9            -2.8983    -4.3195     1.5903 C.ar    
  10 C10           -2.7285    -5.6021     2.0746 C.ar    
  11 C11           -2.1660    -6.5789     1.2659 C.ar    
  12 C12           -1.7753    -6.2648    -0.0277 C.ar    
  13 C13           -1.9523    -4.9821    -0.5092 C.ar    
  14 O14           -1.9975    -7.8413     1.7402 O.3     
  15 C15           -1.4119    -8.7953     0.8520 C.3     
  16 C16           -1.3051   -10.1285     1.5463 C.ar    
  17 C17           -2.3450   -11.0354     1.4643 C.ar    
  18 C18           -2.2463   -12.2603     2.1018 C.ar    
  19 C19           -1.1057   -12.5755     2.8210 C.ar    
  20 C20           -0.0674   -11.6673     2.9016 C.ar    
  21 C21           -0.1649   -10.4463     2.2601 C.ar    
  22 F22           -3.2623   -13.1473     2.0227 F       
  23 C23            1.3955     3.5503    -0.0129 C.3     
  24 C24            1.1515     4.0652    -1.4329 C.3     
  25 C25            2.0247     1.5376     1.1769 C.3     
  26 C26            3.5364     1.7291     1.0394 C.3     
  27 H27           -0.5386     2.0961    -0.9259 H       
  28 H28           -0.5536     1.8110     0.8310 H       
  29 H29            0.4966    -0.1295    -1.2781 H       
  30 H30            0.4816    -0.4146     0.4788 H       
  31 H31           -1.9333    -0.1560     0.3900 H       
  32 H32           -0.4857    -2.3633    -0.5862 H       
  33 H33           -3.4920    -2.0328     0.2439 H       
  34 H34           -3.0605    -1.6419    -2.2250 H       
  35 H35           -2.1282    -3.2307    -2.3137 H       
  36 H36           -3.3358    -3.5586     2.2196 H       
  37 H37           -3.0332    -5.8441     3.0821 H       
  38 H38           -1.3371    -7.0235    -0.6592 H       
  39 H39           -1.6527    -4.7383    -1.5177 H       
  40 H40           -2.0367    -8.8968    -0.0354 H       
  41 H41           -0.4178    -8.4571     0.5597 H       
  42 H42           -3.2342   -10.7884     0.9034 H       
  43 H43           -1.0278   -13.5306     3.3191 H       
  44 H44            0.8222   -11.9129     3.4625 H       
  45 H45            0.6490    -9.7389     2.3199 H       
  46 H46            0.6233     3.9377     0.6517 H       
  47 H47            2.3736     3.8856     0.3320 H       
  48 H48            1.0979     5.1538    -1.4205 H       
  49 H49            1.9699     3.7490    -2.0797 H       
  50 H50            0.2127     3.6595    -1.8102 H       
  51 H51            1.6716     2.0600     2.0660 H       
  52 H52            1.7998     0.4748     1.2665 H       
  53 H53            3.7696     2.7939     1.0435 H       
  54 H54            4.0416     1.2433     1.8742 H       
  55 H55            3.8750     1.2866     0.1026 H       
@<TRIPOS>BOND
   1    1    2 1
   2    1    3 1
   3    1   27 1
   4    1   28 1
   5    2    4 1
   6    2   29 1
   7    2   30 1
   8    3   23 1
   9    3   25 1
  10    4    5 1
  11    4   31 1
  12    5    6 1
  13    5    7 1
  14    5   32 1
  15    6    7 1
  16    6    8 1
  17    6   33 1
  18    7   34 1
  19    7   35 1
  20    8    9 ar
  21    8   13 ar
  22    9   10 ar
  23    9   36 1
  24   10   11 ar
  25   10   37 1
  26   11   12 ar
  27   11   14 1
  28   12   13 ar
  29   12   38 1
  30   13   39 1
  31   14   15 1
  32   15   16 1
  33   15   40 1
  34   15   41 1
  35   16   17 ar
  36   16   21 ar
  37   17   18 ar
  38   17   42 1
  39   18   19 ar
  40   18   22 1
  41   19   20 ar
  42   19   43 1
  43   20   21 ar
  44   20   44 1
  45   21   45 1
  46   23   24 1
  47   23   46 1
  48   23   47 1
  49   24   48 1
  50   24   49 1
  51   24   50 1
  52   25   26 1
  53   25   51 1
  54   25   52 1
  55   26   53 1
  56   26   54 1
  57   26   55 1

#	End of record

