#	Name: ASD01440120
#	Creating user name:	WinNT
#	Creation time:	15. 06. 2019 19:21

#	Modifying user name:	WinNT
#	Modification time:	15. 06. 2019 19:21

#	Program:	/corina/corina34_cracker 3.40 0067  02.08.2006

@<TRIPOS>MOLECULE
ASD01440120
  41   43    0    0    0
SMALL
NO_CHARGES


@<TRIPOS>ATOM
   1 C1             0.5748     0.4344    -0.0260 C.ar    
   2 C2             0.6507    -0.9366     0.0711 C.ar    
   3 C3             1.8892    -1.5612     0.1687 C.ar    
   4 C4             3.0558    -0.8047     0.1686 C.ar    
   5 C5             2.9892     0.5668     0.0719 C.ar    
   6 C6             1.7457     1.1992    -0.0264 C.ar    
   7 C7             1.6693     2.6684    -0.1307 C.2     
   8 O8             0.5957     3.2102    -0.3107 O.2     
   9 C9             2.8972     3.4819    -0.0164 C.ar    
  10 O10            1.9594    -2.9129     0.2646 O.3     
  11 C11            3.2633    -3.4895     0.3618 C.3     
  12 C12            3.1437    -4.9885     0.4595 C.2     
  13 N13            4.2525    -5.7479     0.5606 N.am    
  14 O14            2.0495    -5.5117     0.4471 O.2     
  15 C15            3.4742     4.0454    -1.1572 C.ar    
  16 C16            4.6200     4.8041    -1.0447 C.ar    
  17 C17            5.2007     5.0089     0.1949 C.ar    
  18 C18            4.6361     4.4539     1.3314 C.ar    
  19 C19            3.4833     3.6959     1.2336 C.ar    
  20 Br20           2.7077     2.9445     2.7860 Br      
  21 F21            5.2092     4.6576     2.5377 F       
  22 C22            4.1394    -7.1283     0.7614 C.ar    
  23 C23            5.1444    -7.9871     0.3354 C.ar    
  24 N24            5.0412    -9.2876     0.5223 N.ar    
  25 C25            3.9920    -9.8233     1.1153 C.ar    
  26 C26            2.9512    -9.0337     1.5668 C.ar    
  27 C27            3.0203    -7.6605     1.3964 C.ar    
  28 H28           -0.3873     0.9184    -0.1062 H       
  29 H29           -0.2530    -1.5280     0.0719 H       
  30 H30            4.0157    -1.2938     0.2449 H       
  31 H31            3.8958     1.1537     0.0723 H       
  32 H32            3.8430    -3.2282    -0.5236 H       
  33 H33            3.7647    -3.1063     1.2505 H       
  34 H34            5.1290    -5.3377     0.4941 H       
  35 H35            3.0237     3.8866    -2.1258 H       
  36 H36            5.0659     5.2397    -1.9267 H       
  37 H37            6.0983     5.6039     0.2763 H       
  38 H38            6.0191    -7.5851    -0.1543 H       
  39 H39            3.9453   -10.8939     1.2496 H       
  40 H40            2.0960    -9.4817     2.0509 H       
  41 H41            2.2239    -7.0190     1.7436 H       
@<TRIPOS>BOND
   1    1    2 ar
   2    1    6 ar
   3    1   28 1
   4    2    3 ar
   5    2   29 1
   6    3    4 ar
   7    3   10 1
   8    4    5 ar
   9    4   30 1
  10    5    6 ar
  11    5   31 1
  12    6    7 1
  13    7    8 2
  14    7    9 1
  15    9   15 ar
  16    9   19 ar
  17   10   11 1
  18   11   12 1
  19   11   32 1
  20   11   33 1
  21   12   13 am
  22   12   14 2
  23   13   22 1
  24   13   34 1
  25   15   16 ar
  26   15   35 1
  27   16   17 ar
  28   16   36 1
  29   17   18 ar
  30   17   37 1
  31   18   19 ar
  32   18   21 1
  33   19   20 1
  34   22   23 ar
  35   22   27 ar
  36   23   24 ar
  37   23   38 1
  38   24   25 ar
  39   25   26 ar
  40   25   39 1
  41   26   27 ar
  42   26   40 1
  43   27   41 1

#	End of record

