#	Name: ASD01148784
#	Creating user name:	WinNT
#	Creation time:	15. 06. 2019 19:03

#	Modifying user name:	WinNT
#	Modification time:	15. 06. 2019 19:03

#	Program:	/corina/corina34_cracker 3.40 0067  02.08.2006

@<TRIPOS>MOLECULE
ASD01148784
  57   60    0    0    0
SMALL
NO_CHARGES


@<TRIPOS>ATOM
   1 N1             0.0433     1.3918    -0.2310 N.pl3   
   2 C2            -0.0125     0.0400    -0.1851 C.2     
   3 C3             1.2408    -0.4490     0.1115 C.2     
   4 C4             2.1186     0.7245     0.2540 C.2     
   5 C5             1.3186     1.8277     0.0306 C.2     
   6 C6             1.6248    -1.8603     0.2574 C.2     
   7 O7             2.0097    -2.4886    -0.7095 O.2     
   8 O8             1.5502    -2.4579     1.4634 O.3     
   9 C9            -1.0452     2.2277    -0.5118 C.ar    
  10 C10           -2.1002     2.3213     0.3861 C.ar    
  11 C11           -3.1720     3.1463     0.1063 C.ar    
  12 C12           -3.1954     3.8782    -1.0667 C.ar    
  13 C13           -2.1462     3.7871    -1.9628 C.ar    
  14 C14           -1.0687     2.9687    -1.6859 C.ar    
  15 S15           -4.5651     4.9287    -1.4204 S.o2    
  16 O16           -4.5929     5.0901    -2.8319 O.2     
  17 O17           -5.6629     4.4214    -0.6743 O.2     
  18 N18           -4.2171     6.4183    -0.7862 N.am    
  19 C19           -1.2454    -0.7942    -0.4199 C.3     
  20 C20            1.7599     3.2362     0.0660 C.ar    
  21 C21            1.0975     4.1583     0.8794 C.ar    
  22 C22            1.5149     5.4725     0.9084 C.ar    
  23 C23            2.5884     5.8784     0.1332 C.ar    
  24 C24            3.2494     4.9689    -0.6754 C.ar    
  25 C25            2.8451     3.6508    -0.7093 C.ar    
  26 Cl26           3.1073     7.5345     0.1749 Cl      
  27 C27            3.5642     0.7222     0.5724 C.ar    
  28 C28            4.4810     0.1959    -0.3383 C.ar    
  29 C29            5.8270     0.1969    -0.0364 C.ar    
  30 C30            6.2689     0.7187     1.1677 C.ar    
  31 C31            5.3636     1.2423     2.0752 C.ar    
  32 C32            4.0157     1.2514     1.7818 C.ar    
  33 Cl33           7.9642     0.7160     1.5411 Cl      
  34 C34            1.9453    -3.8534     1.5332 C.3     
  35 C35            1.7945    -4.3549     2.9708 C.3     
  36 H36           -2.0829     1.7494     1.3020 H       
  37 H37           -3.9929     3.2195     0.8043 H       
  38 H38           -2.1673     4.3600    -2.8781 H       
  39 H39           -0.2475     2.9013    -2.3841 H       
  40 H40           -3.3768     6.5644    -0.3241 H       
  41 H41           -4.8535     7.1447    -0.8767 H       
  42 H42           -1.3225    -1.0385    -1.4793 H       
  43 H43           -1.1777    -1.7140     0.1611 H       
  44 H44           -2.1277    -0.2336    -0.1111 H       
  45 H45            0.2600     3.8431     1.4841 H       
  46 H46            1.0034     6.1866     1.5366 H       
  47 H47            4.0858     5.2916    -1.2775 H       
  48 H48            3.3642     2.9415    -1.3368 H       
  49 H49            4.1374    -0.2117    -1.2775 H       
  50 H50            6.5375    -0.2105    -0.7404 H       
  51 H51            5.7139     1.6480     3.0128 H       
  52 H52            3.3109     1.6638     2.4886 H       
  53 H53            1.3098    -4.4444     0.8737 H       
  54 H54            2.9849    -3.9527     1.2210 H       
  55 H55            2.4300    -3.7639     3.6304 H       
  56 H56            0.7549    -4.2556     3.2831 H       
  57 H57            2.0911    -5.4024     3.0232 H       
@<TRIPOS>BOND
   1    1    2 1
   2    1    5 1
   3    1    9 1
   4    2    3 2
   5    2   19 1
   6    3    4 1
   7    3    6 1
   8    4    5 2
   9    4   27 1
  10    5   20 1
  11    6    7 2
  12    6    8 1
  13    8   34 1
  14    9   10 ar
  15    9   14 ar
  16   10   11 ar
  17   10   36 1
  18   11   12 ar
  19   11   37 1
  20   12   13 ar
  21   12   15 1
  22   13   14 ar
  23   13   38 1
  24   14   39 1
  25   15   16 2
  26   15   17 2
  27   15   18 am
  28   18   40 1
  29   18   41 1
  30   19   42 1
  31   19   43 1
  32   19   44 1
  33   20   21 ar
  34   20   25 ar
  35   21   22 ar
  36   21   45 1
  37   22   23 ar
  38   22   46 1
  39   23   24 ar
  40   23   26 1
  41   24   25 ar
  42   24   47 1
  43   25   48 1
  44   27   28 ar
  45   27   32 ar
  46   28   29 ar
  47   28   49 1
  48   29   30 ar
  49   29   50 1
  50   30   31 ar
  51   30   33 1
  52   31   32 ar
  53   31   51 1
  54   32   52 1
  55   34   35 1
  56   34   53 1
  57   34   54 1
  58   35   55 1
  59   35   56 1
  60   35   57 1

#	End of record

