#	Name: ASD04880410
#	Creating user name:	WinNT
#	Creation time:	15. 06. 2019 20:53

#	Modifying user name:	WinNT
#	Modification time:	15. 06. 2019 20:53

#	Program:	/corina/corina34_cracker 3.40 0067  02.08.2006

@<TRIPOS>MOLECULE
ASD04880410
  47   49    0    0    0
SMALL
NO_CHARGES


@<TRIPOS>ATOM
   1 C1            -0.0139     1.4088    -0.2527 C.ar    
   2 C2             0.0082     0.0162    -0.2863 C.ar    
   3 C3            -1.1788    -0.7010    -0.2499 C.ar    
   4 C4            -2.3864    -0.0390    -0.1798 C.ar    
   5 C5            -2.4163     1.3575    -0.1453 C.ar    
   6 C6            -1.2203     2.0794    -0.1772 C.ar    
   7 O7             1.1517     2.1084    -0.2886 O.3     
   8 O8             1.1959    -0.6414    -0.3554 O.3     
   9 C9             1.1460    -2.0692    -0.3866 C.3     
  10 C10            1.0545     3.5336    -0.2509 C.3     
  11 C11           -3.7061     2.0674    -0.0708 C.2     
  12 C12           -5.0648     1.4056    -0.0257 C.3     
  13 N13           -3.8491     3.3473    -0.0284 N.2     
  14 N14           -5.1751     3.7699     0.0395 N.am    
  15 C15           -6.0515     2.5879     0.0464 C.3     
  16 C16           -6.9746     2.5949    -1.1737 C.3     
  17 C17           -6.8667     2.5297     1.3398 C.3     
  18 C18           -5.5874     5.0519     0.0939 C.2     
  19 O19           -6.7745     5.3112     0.0473 O.2     
  20 C20           -4.5968     6.1425     0.2103 C.ar    
  21 C21           -5.0067     7.4738     0.1233 C.ar    
  22 C22           -4.0760     8.4877     0.2333 C.ar    
  23 C23           -2.7394     8.1857     0.4295 C.ar    
  24 C24           -2.3272     6.8677     0.5162 C.ar    
  25 C25           -3.2477     5.8455     0.4136 C.ar    
  26 Br26          -4.6282    10.2924     0.1152 Br      
  27 H27           -1.1570    -1.7805    -0.2768 H       
  28 H28           -3.3089    -0.5999    -0.1519 H       
  29 H29           -1.2387     3.1589    -0.1503 H       
  30 H30            0.5801    -2.3940    -1.2597 H       
  31 H31            2.1593    -2.4671    -0.4418 H       
  32 H32            0.6605    -2.4356     0.5179 H       
  33 H33            2.0540     3.9671    -0.2856 H       
  34 H34            0.4777     3.8812    -1.1080 H       
  35 H35            0.5575     3.8396     0.6697 H       
  36 H36           -5.2351     0.8202    -0.9293 H       
  37 H37           -5.1551     0.7777     0.8606 H       
  38 H38           -6.3743     2.6102    -2.0834 H       
  39 H39           -7.5966     1.6999    -1.1639 H       
  40 H40           -7.6105     3.4796    -1.1431 H       
  41 H41           -7.5010     3.4134     1.4096 H       
  42 H42           -7.4893     1.6350     1.3369 H       
  43 H43           -6.1908     2.4992     2.1943 H       
  44 H44           -6.0492     7.7103    -0.0301 H       
  45 H45           -2.0151     8.9822     0.5150 H       
  46 H46           -1.2829     6.6388     0.6689 H       
  47 H47           -2.9243     4.8173     0.4814 H       
@<TRIPOS>BOND
   1    1    2 ar
   2    1    7 1
   3    1    6 ar
   4    2    3 ar
   5    2    8 1
   6    3    4 ar
   7    3   27 1
   8    4    5 ar
   9    4   28 1
  10    5    6 ar
  11    5   11 1
  12    6   29 1
  13    7   10 1
  14    8    9 1
  15    9   30 1
  16    9   31 1
  17    9   32 1
  18   10   33 1
  19   10   34 1
  20   10   35 1
  21   11   12 1
  22   11   13 2
  23   12   15 1
  24   12   36 1
  25   12   37 1
  26   13   14 1
  27   14   15 1
  28   14   18 am
  29   15   16 1
  30   15   17 1
  31   16   38 1
  32   16   39 1
  33   16   40 1
  34   17   41 1
  35   17   42 1
  36   17   43 1
  37   18   19 2
  38   18   20 1
  39   20   21 ar
  40   20   25 ar
  41   21   22 ar
  42   21   44 1
  43   22   23 ar
  44   22   26 1
  45   23   24 ar
  46   23   45 1
  47   24   25 ar
  48   24   46 1
  49   25   47 1

#	End of record

