#	Name: ASD01910753
#	Creating user name:	WinNT
#	Creation time:	15. 06. 2019 19:56

#	Modifying user name:	WinNT
#	Modification time:	15. 06. 2019 19:56

#	Program:	/corina/corina34_cracker 3.40 0067  02.08.2006

@<TRIPOS>MOLECULE
ASD01910753
  55   58    0    0    0
SMALL
NO_CHARGES


@<TRIPOS>ATOM
   1 C1            -0.1175     1.7689     0.3979 C.ar    
   2 C2            -0.0215     0.3711     0.4098 C.ar    
   3 C3            -1.1542    -0.3895     0.3562 C.ar    
   4 C4            -2.4041     0.2224     0.2897 C.ar    
   5 C5            -2.5041     1.6118     0.2777 C.ar    
   6 C6            -1.3768     2.3801     0.3363 C.ar    
   7 N7            -3.5536    -0.5552     0.2349 N.3     
   8 C8            -4.7558     0.2865     0.1698 C.3     
   9 C9            -5.9829    -0.5991    -0.0712 C.3     
  10 N10           -6.0126    -1.6472     0.9602 N.am    
  11 C11           -4.7953    -2.4432     1.1787 C.3     
  12 C12           -3.6150    -1.4850     1.3706 C.3     
  13 C13           -7.1259    -1.8724     1.6857 C.2     
  14 C14           -7.1760    -3.0099     2.6292 C.ar    
  15 O15           -8.0887    -1.1406     1.5645 O.2     
  16 C16           -7.8001    -2.8629     3.8700 C.ar    
  17 C17           -7.8486    -3.9239     4.7529 C.ar    
  18 C18           -7.2816    -5.1365     4.4167 C.ar    
  19 C19           -6.6534    -5.2983     3.1778 C.ar    
  20 C20           -6.6058    -4.2321     2.2799 C.ar    
  21 C21           -6.0651    -6.5567     2.8300 C.1     
  22 C22           -5.5827    -7.5883     2.5449 C.1     
  23 C23           -4.9943    -8.8467     2.1971 C.ar    
  24 C24           -4.3662    -9.0099     0.9596 C.ar    
  25 C25           -3.8013   -10.2247     0.6318 C.ar    
  26 C26           -3.8559   -11.2804     1.5247 C.ar    
  27 C27           -4.4766   -11.1263     2.7518 C.ar    
  28 C28           -5.0404    -9.9156     3.0960 C.ar    
  29 C29            1.0971     2.5904     0.4558 C.2     
  30 C30            0.9914     4.0936     0.4429 C.3     
  31 O31            2.1863     2.0594     0.5142 O.2     
  32 H32            0.9470    -0.1040     0.4609 H       
  33 H33           -1.0812    -1.4670     0.3650 H       
  34 H34           -3.4750     2.0821     0.2257 H       
  35 H35           -1.4553     3.4572     0.3273 H       
  36 H36           -4.8746     0.8244     1.1104 H       
  37 H37           -4.6562     1.0004    -0.6478 H       
  38 H38           -6.8884     0.0042    -0.0064 H       
  39 H39           -5.9152    -1.0580    -1.0576 H       
  40 H40           -4.9155    -3.0591     2.0700 H       
  41 H41           -4.6134    -3.0793     0.3125 H       
  42 H42           -2.6879    -2.0558     1.4237 H       
  43 H43           -3.7496    -0.9224     2.2944 H       
  44 H44           -8.2456    -1.9168     4.1400 H       
  45 H45           -8.3323    -3.8041     5.7110 H       
  46 H46           -7.3229    -5.9620     5.1119 H       
  47 H47           -6.1221    -4.3509     1.3217 H       
  48 H48           -4.3236    -8.1870     0.2615 H       
  49 H49           -3.3156   -10.3523    -0.3243 H       
  50 H50           -3.4121   -12.2295     1.2624 H       
  51 H51           -4.5159   -11.9549     3.4434 H       
  52 H52           -5.5245    -9.7967     4.0541 H       
  53 H53            0.9135     4.4612     1.4661 H       
  54 H54            1.8787     4.5162    -0.0284 H       
  55 H55            0.1055     4.3907    -0.1184 H       
@<TRIPOS>BOND
   1    1    2 ar
   2    1   29 1
   3    1    6 ar
   4    2    3 ar
   5    2   32 1
   6    3    4 ar
   7    3   33 1
   8    4    5 ar
   9    4    7 1
  10    5    6 ar
  11    5   34 1
  12    6   35 1
  13    7    8 1
  14    7   12 1
  15    8    9 1
  16    8   36 1
  17    8   37 1
  18    9   10 1
  19    9   38 1
  20    9   39 1
  21   10   11 1
  22   10   13 am
  23   11   12 1
  24   11   40 1
  25   11   41 1
  26   12   42 1
  27   12   43 1
  28   13   14 1
  29   13   15 2
  30   14   16 ar
  31   14   20 ar
  32   16   17 ar
  33   16   44 1
  34   17   18 ar
  35   17   45 1
  36   18   19 ar
  37   18   46 1
  38   19   20 ar
  39   19   21 1
  40   20   47 1
  41   21   22 3
  42   22   23 1
  43   23   24 ar
  44   23   28 ar
  45   24   25 ar
  46   24   48 1
  47   25   26 ar
  48   25   49 1
  49   26   27 ar
  50   26   50 1
  51   27   28 ar
  52   27   51 1
  53   28   52 1
  54   29   30 1
  55   29   31 2
  56   30   53 1
  57   30   54 1
  58   30   55 1

#	End of record

