#	Name: ASD01900687
#	Creating user name:	WinNT
#	Creation time:	15. 06. 2019 19:52

#	Modifying user name:	WinNT
#	Modification time:	15. 06. 2019 19:52

#	Program:	/corina/corina34_cracker 3.40 0067  02.08.2006

@<TRIPOS>MOLECULE
ASD01900687
  41   45    0    0    0
SMALL
NO_CHARGES


@<TRIPOS>ATOM
   1 C1            -0.0183     1.4024     0.1325 C.ar    
   2 C2            -0.0080     0.0176     0.1215 C.ar    
   3 C3             1.1830    -0.6779     0.0625 C.ar    
   4 C4             2.3875     0.0113     0.0134 C.ar    
   5 C5             2.3724     1.4126     0.0291 C.ar    
   6 O6             3.5589    -0.6564    -0.0562 O.3     
   7 C7             4.7336    -0.0514     0.1902 C.2     
   8 C8             4.8726     1.2953     0.2214 C.2     
   9 C9             3.6750     2.1247    -0.0107 C.2     
  10 C10            5.9226    -0.8906     0.4379 C.ar    
  11 N11            7.0967    -0.3097     0.6842 N.ar    
  12 C12            8.1882    -1.0038     0.9120 C.ar    
  13 C13            8.1541    -2.4012     0.9031 C.ar    
  14 C14            6.9289    -3.0503     0.6461 C.ar    
  15 C15            5.8001    -2.2778     0.4164 C.ar    
  16 C16            1.1700     2.1047     0.0865 C.ar    
  17 N17            9.0801    -3.3716     1.0956 N.2     
  18 C18            8.5211    -4.5417     0.9772 C.2     
  19 N19            7.1938    -4.4010     0.6998 N.pl3   
  20 C20            6.2710    -5.4373     0.5051 C.ar    
  21 C21            6.5604    -6.4699    -0.3768 C.ar    
  22 C22            5.0677    -5.4366     1.1980 C.ar    
  23 C23            4.1604    -6.4597     1.0043 C.ar    
  24 C24            4.4493    -7.4840     0.1214 C.ar    
  25 C25            5.6490    -7.4902    -0.5662 C.ar    
  26 N26            3.7557     3.4133    -0.2374 N.2     
  27 O27            2.5973     4.1423    -0.6002 O.3     
  28 H28           -0.9575     1.9342     0.1727 H       
  29 H29           -0.9417    -0.5240     0.1598 H       
  30 H30            1.1779    -1.7578     0.0550 H       
  31 H31            5.8338     1.7496     0.4111 H       
  32 H32            9.1186    -0.4914     1.1073 H       
  33 H33            4.8461    -2.7431     0.2168 H       
  34 H34            1.1640     3.1847     0.0947 H       
  35 H35            9.0342    -5.4861     1.0834 H       
  36 H36            7.4971    -6.4751    -0.9143 H       
  37 H37            4.8417    -4.6371     1.8879 H       
  38 H38            3.2245    -6.4600     1.5432 H       
  39 H39            3.7382    -8.2830    -0.0284 H       
  40 H40            5.8717    -8.2914    -1.2554 H       
  41 H41            2.7556     5.0849    -0.7467 H       
@<TRIPOS>BOND
   1    1    2 ar
   2    1   16 ar
   3    1   28 1
   4    2    3 ar
   5    2   29 1
   6    3    4 ar
   7    3   30 1
   8    4    5 ar
   9    4    6 1
  10    5   16 ar
  11    5    9 1
  12    6    7 1
  13    7    8 2
  14    7   10 1
  15    8    9 1
  16    8   31 1
  17    9   26 2
  18   10   11 ar
  19   10   15 ar
  20   11   12 ar
  21   12   13 ar
  22   12   32 1
  23   13   14 ar
  24   13   17 1
  25   14   15 ar
  26   14   19 1
  27   15   33 1
  28   16   34 1
  29   17   18 2
  30   18   19 1
  31   18   35 1
  32   19   20 1
  33   20   21 ar
  34   20   22 ar
  35   21   25 ar
  36   21   36 1
  37   22   23 ar
  38   22   37 1
  39   23   24 ar
  40   23   38 1
  41   24   25 ar
  42   24   39 1
  43   25   40 1
  44   26   27 1
  45   27   41 1

#	End of record

