#	Name: ASD04590467
#	Creating user name:	WinNT
#	Creation time:	15. 06. 2019 20:50

#	Modifying user name:	WinNT
#	Modification time:	15. 06. 2019 20:50

#	Program:	/corina/corina34_cracker 3.40 0067  02.08.2006

@<TRIPOS>MOLECULE
ASD04590467
  68   72    0    0    0
SMALL
NO_CHARGES


@<TRIPOS>ATOM
   1 C1            -0.0167     1.3834     0.0096 C.ar    
   2 C2             0.0021    -0.0041     0.0020 C.ar    
   3 C3             2.3948     0.0191    -0.0208 C.ar    
   4 C4             2.3756     1.4249    -0.0130 C.ar    
   5 C5             1.1624     2.0987     0.0022 C.ar    
   6 N6             3.6952    -0.3637    -0.0353 N.2     
   7 C7             4.4665     0.6967    -0.0370 C.2     
   8 N8             3.6970     1.8290    -0.0235 N.pl3   
   9 C9             5.9437     0.6731    -0.0512 C.2     
  10 C10            6.7565    -0.4840    -0.0657 C.2     
  11 C11            8.0504    -0.0800    -0.0757 C.2     
  12 N12            8.0626     1.2789    -0.0679 N.pl3   
  13 N13            6.7358     1.7273    -0.0584 N.2     
  14 N14            6.3043    -1.8134    -0.0688 N.am    
  15 C15            7.1922    -2.8272    -0.0832 C.2     
  16 O16            8.3851    -2.5907    -0.0936 O.2     
  17 C17            1.1863    -0.6848    -0.0130 C.ar    
  18 C18           -1.2971    -0.7677     0.0109 C.3     
  19 N19           -1.7331    -1.0083    -1.3711 N.3     
  20 C20           -2.8628    -1.9482    -1.4111 C.3     
  21 C21           -0.6195    -1.4969    -2.1973 C.3     
  22 C22           -1.1017    -1.6771    -3.6392 C.3     
  23 O23           -2.2194    -2.5691    -3.6548 O.3     
  24 C24           -3.3225    -2.1239    -2.8608 C.3     
  25 C25            6.7172    -4.2238    -0.0864 C.ar    
  26 C26            5.3477    -4.5001    -0.0745 C.ar    
  27 C27            7.6369    -5.2811    -0.1072 C.ar    
  28 C28            7.1789    -6.5903    -0.1100 C.ar    
  29 C29            5.8229    -6.8492    -0.0927 C.ar    
  30 C30            4.9104    -5.8068    -0.0775 C.ar    
  31 O31            8.9690    -5.0251    -0.1250 O.3     
  32 C32            9.8461    -6.1531    -0.1457 C.3     
  33 C33            3.4330    -6.1034    -0.0587 C.3     
  34 C34            3.2169    -7.6181    -0.0604 C.3     
  35 C35            2.8077    -5.5004     1.2008 C.3     
  36 C36            2.7745    -5.4929    -1.2975 C.3     
  37 H37           -0.9614     1.9069     0.0170 H       
  38 H38            1.1417     3.1785     0.0079 H       
  39 H39            4.0192     2.7439    -0.0213 H       
  40 H40            8.9175    -0.7237    -0.0875 H       
  41 H41            8.8532     1.8409    -0.0722 H       
  42 H42            5.3529    -2.0021    -0.0605 H       
  43 H43            1.1893    -1.7648    -0.0185 H       
  44 H44           -1.1543    -1.7218     0.5182 H       
  45 H45           -2.0561    -0.1872     0.5354 H       
  46 H46           -2.5490    -2.9117    -1.0095 H       
  47 H47           -3.6851    -1.5545    -0.8137 H       
  48 H48            0.1957    -0.7737    -2.1739 H       
  49 H49           -0.2699    -2.4532    -1.8083 H       
  50 H50           -1.4011    -0.7113    -4.0462 H       
  51 H51           -0.2955    -2.0932    -4.2433 H       
  52 H52           -4.1224    -2.8632    -2.9020 H       
  53 H53           -3.6865    -1.1711    -3.2452 H       
  54 H54            4.6328    -3.6907    -0.0625 H       
  55 H55            7.8840    -7.4082    -0.1260 H       
  56 H56            5.4714    -7.8704    -0.0957 H       
  57 H57            9.6766    -6.7615     0.7427 H       
  58 H58            9.6504    -6.7492    -1.0370 H       
  59 H59           10.8803    -5.8090    -0.1585 H       
  60 H60            3.6860    -8.0530     0.8221 H       
  61 H61            2.1483    -7.8326    -0.0468 H       
  62 H62            3.6624    -8.0477    -0.9577 H       
  63 H63            2.9617    -4.4214     1.2020 H       
  64 H64            1.7392    -5.7150     1.2143 H       
  65 H65            3.2769    -5.9354     2.0833 H       
  66 H66            3.2200    -5.9225    -2.1948 H       
  67 H67            1.7059    -5.7075    -1.2839 H       
  68 H68            2.9285    -4.4139    -1.2963 H       
@<TRIPOS>BOND
   1    1    2 ar
   2    1    5 ar
   3    1   37 1
   4    2   17 ar
   5    2   18 1
   6    3    4 ar
   7    3    6 1
   8    3   17 ar
   9    4    5 ar
  10    4    8 1
  11    5   38 1
  12    6    7 2
  13    7    8 1
  14    7    9 1
  15    8   39 1
  16    9   10 1
  17    9   13 2
  18   10   11 2
  19   10   14 1
  20   11   12 1
  21   11   40 1
  22   12   13 1
  23   12   41 1
  24   14   15 am
  25   14   42 1
  26   15   16 2
  27   15   25 1
  28   17   43 1
  29   18   19 1
  30   18   44 1
  31   18   45 1
  32   19   20 1
  33   19   21 1
  34   20   24 1
  35   20   46 1
  36   20   47 1
  37   21   22 1
  38   21   48 1
  39   21   49 1
  40   22   23 1
  41   22   50 1
  42   22   51 1
  43   23   24 1
  44   24   52 1
  45   24   53 1
  46   25   26 ar
  47   25   27 ar
  48   26   30 ar
  49   26   54 1
  50   27   28 ar
  51   27   31 1
  52   28   29 ar
  53   28   55 1
  54   29   30 ar
  55   29   56 1
  56   30   33 1
  57   31   32 1
  58   32   57 1
  59   32   58 1
  60   32   59 1
  61   33   34 1
  62   33   35 1
  63   33   36 1
  64   34   60 1
  65   34   61 1
  66   34   62 1
  67   35   63 1
  68   35   64 1
  69   35   65 1
  70   36   66 1
  71   36   67 1
  72   36   68 1

#	End of record

