#	Name: ASD02030497
#	Creating user name:	WinNT
#	Creation time:	15. 06. 2019 20:15

#	Modifying user name:	WinNT
#	Modification time:	15. 06. 2019 20:15

#	Program:	/corina/corina34_cracker 3.40 0067  02.08.2006

@<TRIPOS>MOLECULE
ASD02030497
  56   59    0    0    0
SMALL
NO_CHARGES


@<TRIPOS>ATOM
   1 N1            -0.0093     1.2434    -0.4660 N.am    
   2 C2            -0.2656    -0.2010    -0.5547 C.3     
   3 C3            -1.1265    -0.6204     0.6433 C.3     
   4 N4            -2.2702     0.2970     0.7438 N.am    
   5 C5            -2.0139     1.7414     0.8325 C.3     
   6 C6            -1.1528     2.1605    -0.3598 C.3     
   7 C7             1.2520     1.7182    -0.4762 C.2     
   8 C8             2.3949     0.7810    -0.4443 C.2     
   9 N9             3.6622     1.1103    -0.3169 N.2     
  10 N10            2.3217    -0.5597    -0.5344 N.2     
  11 C11            3.5443    -1.0215    -0.4654 C.2     
  12 N12            4.3719     0.0349    -0.3294 N.pl3   
  13 O13            1.4500     2.9171    -0.5117 O.2     
  14 C14           -3.5315    -0.1778     0.7540 C.2     
  15 C15           -3.7734    -1.6399     0.7198 C.ar    
  16 O16           -4.4704     0.5926     0.7913 O.2     
  17 C17           -0.6489     3.5901    -0.1521 C.3     
  18 C18           -1.9821     2.0861    -1.6435 C.3     
  19 C19            5.7678    -0.0268    -0.2205 C.ar    
  20 C20            6.5068     1.1403    -0.0845 C.ar    
  21 C21            7.8837     1.0760     0.0231 C.ar    
  22 C22            8.5243    -0.1502    -0.0052 C.ar    
  23 C23            7.7897    -1.3140    -0.1407 C.ar    
  24 C24            6.4137    -1.2560    -0.2428 C.ar    
  25 Cl25           8.8095     2.5347     0.1934 Cl      
  26 N26           -2.7949    -2.4724     1.0339 N.ar    
  27 C27           -2.9694    -3.7862     1.0164 C.ar    
  28 C28           -4.2048    -4.3364     0.6615 C.ar    
  29 C29           -5.2507    -3.4915     0.3269 C.ar    
  30 C30           -5.0343    -2.1234     0.3615 C.ar    
  31 C31           -1.8484    -4.6772     1.3746 C.2     
  32 C32           -0.5135    -4.0920     1.7579 C.3     
  33 O33           -2.0010    -5.8757     1.3606 O.2     
  34 H34           -0.7954    -0.4223    -1.4813 H       
  35 H35            0.6802    -0.7423    -0.5330 H       
  36 H36           -1.4862    -1.6388     0.4965 H       
  37 H37           -0.5335    -0.5673     1.5563 H       
  38 H38           -2.9597     2.2827     0.8108 H       
  39 H39           -1.4841     1.9627     1.7590 H       
  40 H40            3.8371    -2.0602    -0.5066 H       
  41 H41            0.1219     3.5952     0.6187 H       
  42 H42           -0.2317     3.9676    -1.0856 H       
  43 H43           -1.4779     4.2259     0.1588 H       
  44 H44           -2.8384     2.7556    -1.5621 H       
  45 H45           -1.3663     2.3852    -2.4917 H       
  46 H46           -2.3323     1.0645    -1.7910 H       
  47 H47            6.0069     2.0974    -0.0631 H       
  48 H48            9.5999    -0.1984     0.0783 H       
  49 H49            8.2924    -2.2696    -0.1629 H       
  50 H50            5.8409    -2.1655    -0.3483 H       
  51 H51           -4.3421    -5.4076     0.6479 H       
  52 H52           -6.2149    -3.8906     0.0487 H       
  53 H53           -5.8293    -1.4384     0.1063 H       
  54 H54           -0.5674    -3.0043     1.7131 H       
  55 H55           -0.2585    -4.4018     2.7713 H       
  56 H56            0.2507    -4.4467     1.0663 H       
@<TRIPOS>BOND
   1    1    2 1
   2    1    7 am
   3    1    6 1
   4    2    3 1
   5    2   34 1
   6    2   35 1
   7    3    4 1
   8    3   36 1
   9    3   37 1
  10    4    5 1
  11    4   14 am
  12    5    6 1
  13    5   38 1
  14    5   39 1
  15    6   17 1
  16    6   18 1
  17    7    8 1
  18    7   13 2
  19    8    9 2
  20    8   10 1
  21    9   12 1
  22   10   11 2
  23   11   12 1
  24   11   40 1
  25   12   19 1
  26   14   15 1
  27   14   16 2
  28   15   26 ar
  29   15   30 ar
  30   17   41 1
  31   17   42 1
  32   17   43 1
  33   18   44 1
  34   18   45 1
  35   18   46 1
  36   19   20 ar
  37   19   24 ar
  38   20   21 ar
  39   20   47 1
  40   21   22 ar
  41   21   25 1
  42   22   23 ar
  43   22   48 1
  44   23   24 ar
  45   23   49 1
  46   24   50 1
  47   26   27 ar
  48   27   28 ar
  49   27   31 1
  50   28   29 ar
  51   28   51 1
  52   29   30 ar
  53   29   52 1
  54   30   53 1
  55   31   32 1
  56   31   33 2
  57   32   54 1
  58   32   55 1
  59   32   56 1

#	End of record

