#	Name: ASD01885850
#	Creating user name:	WinNT
#	Creation time:	15. 06. 2019 19:50

#	Modifying user name:	WinNT
#	Modification time:	15. 06. 2019 19:50

#	Program:	/corina/corina34_cracker 3.40 0067  02.08.2006

@<TRIPOS>MOLECULE
ASD01885850
  47   50    0    0    0
SMALL
NO_CHARGES


@<TRIPOS>ATOM
   1 C1            -0.0172     1.4136     0.0098 C.ar    
   2 C2             0.0021    -0.0041     0.0020 C.ar    
   3 C3            -1.2278    -0.7095     0.0099 C.ar    
   4 C4            -2.4016     0.0313     0.0251 C.ar    
   5 C5            -2.3344     1.4291     0.0320 C.ar    
   6 N6            -1.1792     2.0669     0.0299 N.ar    
   7 C7             1.2053     2.1129     0.0019 C.ar    
   8 C8             2.3775     1.4229    -0.0130 C.ar    
   9 C9             2.3912     0.0293    -0.0205 C.ar    
  10 C10            1.2286    -0.6812    -0.0128 C.ar    
  11 C11           -1.2590    -2.1899     0.0017 C.ar    
  12 C12           -3.5929     2.2132     0.0477 C.2     
  13 N13           -3.5476     3.5602     0.0546 N.am    
  14 O14           -4.6649     1.6414     0.0544 O.2     
  15 C15            3.6820     2.1773    -0.0219 C.3     
  16 C16            4.1306     2.4217     1.3959 C.ar    
  17 C17            4.9389     1.5044     2.0527 C.ar    
  18 C18            5.3326     1.7591     3.3515 C.ar    
  19 N19            4.9499     2.8596     3.9706 N.ar    
  20 C20            4.1799     3.7572     3.3781 C.ar    
  21 C21            3.7507     3.5689     2.0708 C.ar    
  22 O22            3.8102     4.8751     4.0523 O.3     
  23 C23            4.2887     5.0130     5.3917 C.3     
  24 C24           -2.0404    -2.8786     0.9300 C.ar    
  25 C25           -2.0665    -4.2574     0.9180 C.ar    
  26 C26           -1.3179    -4.9589    -0.0139 C.ar    
  27 C27           -0.5401    -4.2794    -0.9381 C.ar    
  28 C28           -0.5117    -2.9005    -0.9379 C.ar    
  29 F29           -1.3425    -6.3097    -0.0181 F       
  30 H30           -3.3596    -0.4674     0.0311 H       
  31 H31            1.2120     3.1929     0.0072 H       
  32 H32            3.3357    -0.4944    -0.0327 H       
  33 H33            1.2523    -1.7609    -0.0184 H       
  34 H34           -2.6918     4.0167     0.0492 H       
  35 H35           -4.3709     4.0731     0.0649 H       
  36 H36            4.4370     1.5914    -0.5460 H       
  37 H37            3.5460     3.1322    -0.5296 H       
  38 H38            5.2564     0.6009     1.5534 H       
  39 H39            5.9613     1.0484     3.8672 H       
  40 H40            3.1223     4.3040     1.5899 H       
  41 H41            3.9318     4.1769     5.9930 H       
  42 H42            5.3787     5.0196     5.3892 H       
  43 H43            3.9207     5.9479     5.8145 H       
  44 H44           -2.6236    -2.3328     1.6569 H       
  45 H45           -2.6711    -4.7914     1.6361 H       
  46 H46            0.0415    -4.8305    -1.6623 H       
  47 H47            0.0915    -2.3718    -1.6611 H       
@<TRIPOS>BOND
   1    1    2 ar
   2    1    7 ar
   3    1    6 ar
   4    2    3 ar
   5    2   10 ar
   6    3    4 ar
   7    3   11 1
   8    4    5 ar
   9    4   30 1
  10    5    6 ar
  11    5   12 1
  12    7    8 ar
  13    7   31 1
  14    8   15 1
  15    8    9 ar
  16    9   10 ar
  17    9   32 1
  18   10   33 1
  19   11   24 ar
  20   11   28 ar
  21   12   13 am
  22   12   14 2
  23   13   34 1
  24   13   35 1
  25   15   16 1
  26   15   36 1
  27   15   37 1
  28   16   17 ar
  29   16   21 ar
  30   17   18 ar
  31   17   38 1
  32   18   19 ar
  33   18   39 1
  34   19   20 ar
  35   20   21 ar
  36   20   22 1
  37   21   40 1
  38   22   23 1
  39   23   41 1
  40   23   42 1
  41   23   43 1
  42   24   25 ar
  43   24   44 1
  44   25   26 ar
  45   25   45 1
  46   26   27 ar
  47   26   29 1
  48   27   28 ar
  49   27   46 1
  50   28   47 1

#	End of record

