#	Name: ASD01914973
#	Creating user name:	WinNT
#	Creation time:	15. 06. 2019 20:04

#	Modifying user name:	WinNT
#	Modification time:	15. 06. 2019 20:04

#	Program:	/corina/corina34_cracker 3.40 0067  02.08.2006

@<TRIPOS>MOLECULE
ASD01914973
  36   38    0    0    0
SMALL
NO_CHARGES


@<TRIPOS>ATOM
   1 C1            -0.0168     1.3866     0.0097 C.ar    
   2 C2             0.0021    -0.0041     0.0020 C.ar    
   3 O3            -1.1602    -0.7087     0.0087 O.3     
   4 C4            -1.0550    -2.1338     0.0001 C.3     
   5 C5            -2.4349    -2.7394     0.0093 C.ar    
   6 C6            -3.0783    -3.0106    -1.1835 C.ar    
   7 C7            -3.0544    -3.0287     1.2106 C.ar    
   8 C8            -4.3204    -3.5844     1.2207 C.ar    
   9 C9            -4.9677    -3.8516     0.0295 C.ar    
  10 C10           -4.3460    -3.5670    -1.1747 C.ar    
  11 F11           -4.9780    -3.8274    -2.3400 F       
  12 C12            1.2238    -0.6628    -0.0130 C.ar    
  13 N13            2.3620     0.0049    -0.0192 N.ar    
  14 C14            2.3942     1.3205    -0.0120 C.ar    
  15 C15            1.2061     2.0556     0.0016 C.ar    
  16 C16            3.7076     2.0595    -0.0171 C.3     
  17 C17            3.5732     3.3543    -0.8146 C.3     
  18 N18            2.4249     4.1342    -0.3607 N.am    
  19 C19            1.2754     3.5315     0.0059 C.2     
  20 O20            0.3104     4.1930     0.3356 O.2     
  21 C21            2.5232     5.5948    -0.3026 C.3     
  22 H22           -0.9495     1.9310     0.0171 H       
  23 H23           -0.5239    -2.4535    -0.8964 H       
  24 H24           -0.5078    -2.4630     0.8834 H       
  25 H25           -2.5925    -2.7882    -2.1221 H       
  26 H26           -2.5490    -2.8209     2.1422 H       
  27 H27           -4.8035    -3.8100     2.1599 H       
  28 H28           -5.9563    -4.2863     0.0375 H       
  29 H29            1.2433    -1.7426    -0.0195 H       
  30 H30            3.9950     2.2939     1.0079 H       
  31 H31            4.4742     1.4322    -0.4720 H       
  32 H32            4.4796     3.9467    -0.6903 H       
  33 H33            3.4468     3.1128    -1.8700 H       
  34 H34            2.2068     6.0184    -1.2557 H       
  35 H35            1.8805     5.9708     0.4934 H       
  36 H36            3.5555     5.8818    -0.1022 H       
@<TRIPOS>BOND
   1    1    2 ar
   2    1   15 ar
   3    1   22 1
   4    2    3 1
   5    2   12 ar
   6    3    4 1
   7    4    5 1
   8    4   23 1
   9    4   24 1
  10    5    6 ar
  11    5    7 ar
  12    6   10 ar
  13    6   25 1
  14    7    8 ar
  15    7   26 1
  16    8    9 ar
  17    8   27 1
  18    9   10 ar
  19    9   28 1
  20   10   11 1
  21   12   13 ar
  22   12   29 1
  23   13   14 ar
  24   14   15 ar
  25   14   16 1
  26   15   19 1
  27   16   17 1
  28   16   30 1
  29   16   31 1
  30   17   18 1
  31   17   32 1
  32   17   33 1
  33   18   19 am
  34   18   21 1
  35   19   20 2
  36   21   34 1
  37   21   35 1
  38   21   36 1

#	End of record

