#	Name: ASD01410448
#	Creating user name:	WinNT
#	Creation time:	15. 06. 2019 19:17

#	Modifying user name:	WinNT
#	Modification time:	15. 06. 2019 19:17

#	Program:	/corina/corina34_cracker 3.40 0067  02.08.2006

@<TRIPOS>MOLECULE
ASD01410448
  54   56    0    0    0
SMALL
NO_CHARGES


@<TRIPOS>ATOM
   1 C1             2.0279     4.4783    -2.1652 C.ar    
   2 C2             2.8150     4.2991    -3.2942 C.ar    
   3 C3             3.8185     3.3506    -3.2746 C.ar    
   4 N4             4.0350     2.6173    -2.1995 N.ar    
   5 C5             3.3062     2.7588    -1.1045 C.ar    
   6 C6             2.2801     3.6936    -1.0533 C.ar    
   7 C7             1.4528     3.8516     0.1964 C.3     
   8 F8             0.4921     4.8488    -0.0033 F       
   9 F9             0.8148     2.6415     0.4894 F       
  10 F10            2.2834     4.2111     1.2632 F       
  11 C11            4.4609    -0.2055    -0.2789 C.ar    
  12 C12            4.6416     1.1565    -0.0698 C.ar    
  13 O13            3.5634     1.9835    -0.0213 O.3     
  14 C14            5.5483    -1.0539    -0.3294 C.ar    
  15 C15            6.8323    -0.5512    -0.1714 C.ar    
  16 C16            7.0216     0.8230     0.0400 C.ar    
  17 C17            5.9144     1.6734     0.0895 C.ar    
  18 C18            8.3812     1.3662     0.2095 C.2     
  19 O19            9.3420     0.6235     0.1663 O.2     
  20 O20            8.5589     2.6865     0.4123 O.3     
  21 N21            7.9303    -1.4088    -0.2221 N.am    
  22 C22            8.5378    -1.6569    -1.3993 C.2     
  23 C23            8.4237    -2.0402     1.0043 C.3     
  24 O24            8.1292    -1.1342    -2.4145 O.2     
  25 C25            9.7246    -2.5840    -1.4540 C.3     
  26 C26           10.2212    -2.6920    -2.8972 C.3     
  27 C27           11.4262    -3.6332    -2.9528 C.3     
  28 C28           11.0150    -5.0184    -2.4498 C.3     
  29 C29           10.5185    -4.9103    -1.0067 C.3     
  30 C30            9.3135    -3.9692    -0.9511 C.3     
  31 C31           12.2200    -5.9596    -2.5054 C.3     
  32 H32            1.2396     5.2164    -2.1531 H       
  33 H33            2.6444     4.8949    -4.1787 H       
  34 H34            4.4336     3.2069    -4.1507 H       
  35 H35            3.4637    -0.6029    -0.3981 H       
  36 H36            5.3998    -2.1112    -0.4919 H       
  37 H37            6.0521     2.7323     0.2516 H       
  38 H38            9.4689     2.9960     0.5179 H       
  39 H39            7.9165    -2.9937     1.1515 H       
  40 H40            9.4972    -2.2091     0.9195 H       
  41 H41            8.2247    -1.3877     1.8544 H       
  42 H42           10.5223    -2.1906    -0.8239 H       
  43 H43            9.4235    -3.0854    -3.5274 H       
  44 H44           10.5141    -1.7052    -3.2555 H       
  45 H45           11.7799    -3.7102    -3.9809 H       
  46 H46           12.2238    -3.2398    -2.3226 H       
  47 H47           10.2174    -5.4118    -3.0800 H       
  48 H48           10.2256    -5.8972    -0.6483 H       
  49 H49           11.3161    -4.5170    -0.3765 H       
  50 H50            8.9597    -3.8922     0.0771 H       
  51 H51            8.5158    -4.3625    -1.5812 H       
  52 H52           13.0177    -5.5662    -1.8752 H       
  53 H53           11.9271    -6.9465    -2.1471 H       
  54 H54           12.5737    -6.0366    -3.5335 H       
@<TRIPOS>BOND
   1    1    2 ar
   2    1    6 ar
   3    1   32 1
   4    2    3 ar
   5    2   33 1
   6    3    4 ar
   7    3   34 1
   8    4    5 ar
   9    5    6 ar
  10    5   13 1
  11    6    7 1
  12    7    8 1
  13    7    9 1
  14    7   10 1
  15   11   12 ar
  16   11   14 ar
  17   11   35 1
  18   12   13 1
  19   12   17 ar
  20   14   15 ar
  21   14   36 1
  22   15   16 ar
  23   15   21 1
  24   16   17 ar
  25   16   18 1
  26   17   37 1
  27   18   19 2
  28   18   20 1
  29   20   38 1
  30   21   22 am
  31   21   23 1
  32   22   24 2
  33   22   25 1
  34   23   39 1
  35   23   40 1
  36   23   41 1
  37   25   26 1
  38   25   30 1
  39   25   42 1
  40   26   27 1
  41   26   43 1
  42   26   44 1
  43   27   28 1
  44   27   45 1
  45   27   46 1
  46   28   29 1
  47   28   31 1
  48   28   47 1
  49   29   30 1
  50   29   48 1
  51   29   49 1
  52   30   50 1
  53   30   51 1
  54   31   52 1
  55   31   53 1
  56   31   54 1

#	End of record

