#	Name: ASD01913149
#	Creating user name:	WinNT
#	Creation time:	15. 06. 2019 20:01

#	Modifying user name:	WinNT
#	Modification time:	15. 06. 2019 20:01

#	Program:	/corina/corina34_cracker 3.40 0067  02.08.2006

@<TRIPOS>MOLECULE
ASD01913149
  49   51    0    0    0
SMALL
NO_CHARGES


@<TRIPOS>ATOM
   1 C1            -0.0669     1.1774    -0.0420 C.ar    
   2 C2            -0.0197    -0.2047    -0.0791 C.ar    
   3 C3             1.2001    -0.8552    -0.0953 C.ar    
   4 C4             2.3764    -0.1209    -0.0748 C.ar    
   5 C5             2.3259     1.2653    -0.0381 C.ar    
   6 C6             1.1050     1.9110    -0.0215 C.ar    
   7 O7             3.5768    -0.7580    -0.0902 O.3     
   8 C8             4.7468     0.0621    -0.0674 C.3     
   9 C9             5.9925    -0.8260    -0.0894 C.3     
  10 C10            7.2264     0.0389    -0.0654 C.2     
  11 N11            8.4483    -0.5298    -0.0789 N.am    
  12 C12            9.6654     0.2956    -0.0560 C.3     
  13 C13           10.5784    -0.2144     1.0641 C.3     
  14 N14           10.8077    -1.6545     0.8871 N.3     
  15 C15            9.5548    -2.4122     1.0054 C.3     
  16 C16            8.5999    -1.9924    -0.1110 C.3     
  17 O17            7.1200     1.2466    -0.0338 O.2     
  18 C18           11.7594    -2.1217     1.7866 C.ar    
  19 C19           11.3945    -3.0086     2.7906 C.ar    
  20 C20           12.3411    -3.4709     3.6829 C.ar    
  21 C21           13.6590    -3.0556     3.5852 C.ar    
  22 C22           14.0403    -2.1756     2.5952 C.ar    
  23 C23           13.0955    -1.7037     1.6808 C.ar    
  24 Br24          -1.6245    -1.2046    -0.1071 Br      
  25 C25           15.4758    -1.7277     2.4958 C.3     
  26 F26           16.2250    -2.3351     3.5091 F       
  27 F27           15.9936    -2.0947     1.2491 F       
  28 F28           15.5412    -0.3374     2.6369 F       
  29 C29           13.4850    -0.7897     0.6495 C.1     
  30 N30           13.7939    -0.0646    -0.1686 N.1     
  31 H31           -1.0205     1.6843    -0.0336 H       
  32 H32            1.2369    -1.9342    -0.1235 H       
  33 H33            3.2408     1.8391    -0.0217 H       
  34 H34            1.0656     2.9899     0.0071 H       
  35 H35            4.7503     0.7145    -0.9406 H       
  36 H36            4.7484     0.6679     0.8387 H       
  37 H37            5.9890    -1.4784     0.7838 H       
  38 H38            5.9910    -1.4317    -0.9955 H       
  39 H39           10.1804     0.2152    -1.0133 H       
  40 H40            9.3991     1.3354     0.1335 H       
  41 H41           11.5314     0.3132     1.0252 H       
  42 H42           10.1035    -0.0376     2.0292 H       
  43 H43            9.7655    -3.4785     0.9238 H       
  44 H44            9.0942    -2.2048     1.9713 H       
  45 H45            7.6298    -2.4661     0.0396 H       
  46 H46            9.0105    -2.2910    -1.0756 H       
  47 H47           10.3690    -3.3369     2.8738 H       
  48 H48           12.0522    -4.1603     4.4624 H       
  49 H49           14.3916    -3.4230     4.2886 H       
@<TRIPOS>BOND
   1    1    2 ar
   2    1    6 ar
   3    1   31 1
   4    2    3 ar
   5    2   24 1
   6    3    4 ar
   7    3   32 1
   8    4    5 ar
   9    4    7 1
  10    5    6 ar
  11    5   33 1
  12    6   34 1
  13    7    8 1
  14    8    9 1
  15    8   35 1
  16    8   36 1
  17    9   10 1
  18    9   37 1
  19    9   38 1
  20   10   11 am
  21   10   17 2
  22   11   12 1
  23   11   16 1
  24   12   13 1
  25   12   39 1
  26   12   40 1
  27   13   14 1
  28   13   41 1
  29   13   42 1
  30   14   15 1
  31   14   18 1
  32   15   16 1
  33   15   43 1
  34   15   44 1
  35   16   45 1
  36   16   46 1
  37   18   19 ar
  38   18   23 ar
  39   19   20 ar
  40   19   47 1
  41   20   21 ar
  42   20   48 1
  43   21   22 ar
  44   21   49 1
  45   22   23 ar
  46   22   25 1
  47   23   29 1
  48   25   26 1
  49   25   27 1
  50   25   28 1
  51   29   30 3

#	End of record

