#	Name: ASD03090729
#	Creating user name:	WinNT
#	Creation time:	15. 06. 2019 20:29

#	Modifying user name:	WinNT
#	Modification time:	15. 06. 2019 20:29

#	Program:	/corina/corina34_cracker 3.40 0067  02.08.2006

@<TRIPOS>MOLECULE
ASD03090729
  40   42    0    0    0
SMALL
NO_CHARGES


@<TRIPOS>ATOM
   1 N1            -0.2815     1.3771    -0.0094 N.am    
   2 C2            -0.2557     0.0466    -0.2226 C.2     
   3 O3             0.5434    -0.4280    -1.0065 O.2     
   4 N4            -1.1156    -0.7578     0.4331 N.am    
   5 C5            -1.1731    -2.1232     0.1229 C.ar    
   6 C6            -2.4017    -2.7641     0.0334 C.ar    
   7 C7            -2.4576    -4.1093    -0.2727 C.ar    
   8 C8            -1.2867    -4.8208    -0.4905 C.ar    
   9 C9            -0.0592    -4.1814    -0.4008 C.ar    
  10 C10           -0.0021    -2.8344    -0.1008 C.ar    
  11 N11           -3.6511    -2.0054     0.2667 N.pl3   
  12 O12           -4.7219    -2.5855     0.2823 O.2     
  13 O13           -3.6083    -0.8009     0.4430 O.2     
  14 O14           -1.3425    -6.1456    -0.7915 O.3     
  15 C15           -0.0982    -6.8157    -1.0032 C.3     
  16 C16           -0.3605    -8.2876    -1.3283 C.3     
  17 O17            1.5708     3.9493    -1.3005 O.3     
  18 N18            0.7012     3.5095    -0.5847 N.2     
  19 C19            0.6084     2.2096    -0.6879 C.2     
  20 C20            1.5962     1.8150    -1.6291 C.2     
  21 C21            2.1855     2.9776    -1.9902 C.2     
  22 C22            3.3125     3.1476    -2.9761 C.3     
  23 C23            3.0512     4.0225    -4.2037 C.3     
  24 C24            3.9569     4.5314    -3.0805 C.3     
  25 H25           -0.9217     1.7562     0.6130 H       
  26 H26           -1.6947    -0.3916     1.1197 H       
  27 H27           -3.4132    -4.6078    -0.3423 H       
  28 H28            0.8520    -4.7359    -0.5701 H       
  29 H29            0.9536    -2.3356    -0.0353 H       
  30 H30            0.4293    -6.3484    -1.8348 H       
  31 H31            0.5103    -6.7456    -0.1016 H       
  32 H32           -0.8880    -8.7549    -0.4967 H       
  33 H33           -0.9690    -8.3577    -2.2299 H       
  34 H34            0.5885    -8.7988    -1.4898 H       
  35 H35            1.8242     0.8179    -1.9757 H       
  36 H36            3.9593     2.2798    -3.1050 H       
  37 H37            3.5264     3.7305    -5.1402 H       
  38 H38            2.0641     4.4751    -4.2983 H       
  39 H39            3.5657     5.3187    -2.4362 H       
  40 H40            5.0280     4.5742    -3.2781 H       
@<TRIPOS>BOND
   1    1    2 am
   2    1   19 1
   3    1   25 1
   4    2    3 2
   5    2    4 am
   6    4    5 1
   7    4   26 1
   8    5    6 ar
   9    5   10 ar
  10    6    7 ar
  11    6   11 1
  12    7    8 ar
  13    7   27 1
  14    8    9 ar
  15    8   14 1
  16    9   10 ar
  17    9   28 1
  18   10   29 1
  19   11   12 2
  20   11   13 2
  21   14   15 1
  22   15   16 1
  23   15   30 1
  24   15   31 1
  25   16   32 1
  26   16   33 1
  27   16   34 1
  28   17   18 1
  29   17   21 1
  30   18   19 2
  31   19   20 1
  32   20   21 2
  33   20   35 1
  34   21   22 1
  35   22   23 1
  36   22   24 1
  37   22   36 1
  38   23   24 1
  39   23   37 1
  40   23   38 1
  41   24   39 1
  42   24   40 1

#	End of record

