#	Name: ASD01913132
#	Creating user name:	WinNT
#	Creation time:	15. 06. 2019 20:01

#	Modifying user name:	WinNT
#	Modification time:	15. 06. 2019 20:01

#	Program:	/corina/corina34_cracker 3.40 0067  02.08.2006

@<TRIPOS>MOLECULE
ASD01913132
  49   51    0    0    0
SMALL
NO_CHARGES


@<TRIPOS>ATOM
   1 C1             0.0392     1.1795     0.0591 C.ar    
   2 C2             0.0295    -0.2048     0.0810 C.ar    
   3 C3            -1.1714    -0.8878     0.0907 C.ar    
   4 C4            -2.3677    -0.1860     0.0785 C.ar    
   5 C5            -2.3566     1.2009     0.0566 C.ar    
   6 C6            -1.1543     1.8814     0.0522 C.ar    
   7 F7             1.2142     1.8461     0.0501 F       
   8 O8            -3.5501    -0.8568     0.0876 O.3     
   9 C9            -4.7427    -0.0696     0.0740 C.3     
  10 C10           -5.9630    -0.9924     0.0869 C.3     
  11 C11           -7.2207    -0.1622     0.0726 C.2     
  12 N12           -8.4261    -0.7650     0.0806 N.am    
  13 C13           -9.6659     0.0262     0.0670 C.3     
  14 C14          -10.5650    -0.4972    -1.0582 C.3     
  15 N15          -10.7538    -1.9450    -0.8964 N.3     
  16 C16           -9.4802    -2.6659    -1.0233 C.3     
  17 C17           -8.5367    -2.2316     0.0971 C.3     
  18 O18           -7.1481     1.0482     0.0540 O.2     
  19 C19          -11.6927    -2.4291    -1.8005 C.ar    
  20 C20          -11.3037    -3.2946    -2.8141 C.ar    
  21 C21          -12.2376    -3.7736    -3.7109 C.ar    
  22 C22          -13.5666    -3.3965    -3.6083 C.ar    
  23 C23          -13.9717    -2.5382    -2.6088 C.ar    
  24 C24          -13.0399    -2.0497    -1.6897 C.ar    
  25 C25          -13.4540    -1.1581    -0.6486 C.1     
  26 N26          -13.7826    -0.4507     0.1773 N.1     
  27 C27          -15.4190    -2.1317    -2.5040 C.3     
  28 F28          -16.1517    -2.7490    -3.5235 F       
  29 F29          -15.9255    -2.5264    -1.2611 F       
  30 F30          -15.5235    -0.7423    -2.6303 F       
  31 H31            0.9612    -0.7510     0.0902 H       
  32 H32           -1.1786    -1.9676     0.1074 H       
  33 H33           -3.2873     1.7486     0.0466 H       
  34 H34           -1.1453     2.9612     0.0355 H       
  35 H35           -4.7638     0.5731     0.9541 H       
  36 H36           -4.7618     0.5455    -0.8256 H       
  37 H37           -5.9419    -1.6351    -0.7932 H       
  38 H38           -5.9439    -1.6075     0.9866 H       
  39 H39          -10.1778    -0.0788     1.0235 H       
  40 H40           -9.4289     1.0750    -0.1116 H       
  41 H41          -11.5323     0.0031    -1.0133 H       
  42 H42          -10.0959    -0.2969    -2.0215 H       
  43 H43           -9.6609    -3.7386    -0.9531 H       
  44 H44           -9.0263    -2.4355    -1.9871 H       
  45 H45           -7.5538    -2.6762    -0.0589 H       
  46 H46           -8.9381    -2.5518     1.0586 H       
  47 H47          -10.2695    -3.5931    -2.9012 H       
  48 H48          -11.9300    -4.4464    -4.4978 H       
  49 H49          -14.2891    -3.7768    -4.3153 H       
@<TRIPOS>BOND
   1    1    2 ar
   2    1    7 1
   3    1    6 ar
   4    2    3 ar
   5    2   31 1
   6    3    4 ar
   7    3   32 1
   8    4    5 ar
   9    4    8 1
  10    5    6 ar
  11    5   33 1
  12    6   34 1
  13    8    9 1
  14    9   10 1
  15    9   35 1
  16    9   36 1
  17   10   11 1
  18   10   37 1
  19   10   38 1
  20   11   12 am
  21   11   18 2
  22   12   13 1
  23   12   17 1
  24   13   14 1
  25   13   39 1
  26   13   40 1
  27   14   15 1
  28   14   41 1
  29   14   42 1
  30   15   16 1
  31   15   19 1
  32   16   17 1
  33   16   43 1
  34   16   44 1
  35   17   45 1
  36   17   46 1
  37   19   20 ar
  38   19   24 ar
  39   20   21 ar
  40   20   47 1
  41   21   22 ar
  42   21   48 1
  43   22   23 ar
  44   22   49 1
  45   23   24 ar
  46   23   27 1
  47   24   25 1
  48   25   26 3
  49   27   28 1
  50   27   29 1
  51   27   30 1

#	End of record

