#	Name: ASD01412015
#	Creating user name:	WinNT
#	Creation time:	15. 06. 2019 19:19

#	Modifying user name:	WinNT
#	Modification time:	15. 06. 2019 19:19

#	Program:	/corina/corina34_cracker 3.40 0067  02.08.2006

@<TRIPOS>MOLECULE
ASD01412015
  84   89    0    0    0
SMALL
NO_CHARGES


@<TRIPOS>ATOM
   1 C1            -1.1720     3.2494    -0.6276 C.ar    
   2 C2            -0.9746     1.9108    -1.0233 C.ar    
   3 C3            -2.0429     1.0032    -0.9797 C.ar    
   4 C4            -3.2690     1.4144    -0.5557 C.ar    
   5 C5            -3.4749     2.7444    -0.1604 C.ar    
   6 C6            -2.4229     3.6580    -0.1928 C.ar    
   7 N7             0.0358     3.9014    -0.7728 N.pl3   
   8 C8             0.9675     3.0073    -1.2443 C.2     
   9 C9             0.3833     1.7927    -1.4056 C.2     
  10 C10            1.0599     0.5412    -1.9026 C.3     
  11 C11            0.9724    -0.5462    -0.8299 C.3     
  12 C12            1.6594    -1.8168    -1.3345 C.3     
  13 C13            0.9646    -2.3005    -2.6090 C.3     
  14 C14            1.0520    -1.2131    -3.6817 C.3     
  15 C15            0.3651     0.0575    -3.1771 C.3     
  16 C16           -4.8094     3.1768     0.2961 C.2     
  17 O17           -4.9907     4.3292     0.6393 O.2     
  18 N18           -5.8276     2.2946     0.3328 N.am    
  19 C19           -7.1529     2.7240     0.7862 C.3     
  20 C20           -8.1047     1.5569     0.7325 C.2     
  21 C21           -7.0580     3.2389     2.2238 C.3     
  22 C22           -7.6655     3.8424    -0.1233 C.3     
  23 C23           -8.8162    -0.4855    -0.2494 C.ar    
  24 O24           -8.9746     1.4448     1.5701 O.2     
  25 C25           -9.1914    -1.0739     0.9547 C.ar    
  26 C26          -10.0114    -2.1790     0.9568 C.ar    
  27 C27          -10.4687    -2.7111    -0.2549 C.ar    
  28 C28          -10.0889    -2.1155    -1.4638 C.ar    
  29 C29           -9.2682    -1.0109    -1.4562 C.ar    
  30 C30          -11.3440    -3.8913    -0.2579 C.2     
  31 C31          -12.3915    -3.9576     0.5929 C.2     
  32 N32           -7.9893     0.6376    -0.2464 N.am    
  33 C33            0.2840     5.3139    -0.4739 C.3     
  34 C34            2.3836     3.3199    -1.5317 C.ar    
  35 C35            2.7083     4.4762    -2.2234 C.ar    
  36 C36            4.0551     4.7775    -2.4995 C.ar    
  37 C37            5.0443     3.8886    -2.0613 C.ar    
  38 C38            4.6984     2.7297    -1.3659 C.ar    
  39 C39            3.3916     2.4490    -1.0986 C.ar    
  40 N40            4.5828     5.8332    -3.1490 N.2     
  41 C41            5.8547     5.8826    -3.2740 C.2     
  42 S42            6.6086     4.5329    -2.5519 S.3     
  43 C43            6.5951     6.9942    -3.9719 C.3     
  44 C44          -12.7896    -2.8062     1.3182 C.2     
  45 O45          -12.2156    -1.7481     1.1427 O.2     
  46 O46          -13.8051    -2.8841     2.2033 O.3     
  47 H47           -1.8926    -0.0224    -1.2830 H       
  48 H48           -4.0889     0.7122    -0.5236 H       
  49 H49           -2.5836     4.6816     0.1120 H       
  50 H50            2.1067     0.7553    -2.1184 H       
  51 H51            1.4675    -0.2017     0.0780 H       
  52 H52           -0.0743    -0.7604    -0.6142 H       
  53 H53            2.7062    -1.6027    -1.5503 H       
  54 H54            1.5971    -2.5915    -0.5703 H       
  55 H55            1.4540    -3.2057    -2.9684 H       
  56 H56           -0.0822    -2.5146    -2.3932 H       
  57 H57            2.0988    -0.9989    -3.8974 H       
  58 H58            0.5570    -1.5576    -4.5896 H       
  59 H59           -0.6817    -0.1566    -2.9613 H       
  60 H60            0.4274     0.8322    -3.9413 H       
  61 H61           -5.6830     1.3753     0.0591 H       
  62 H62           -6.3695     4.0831     2.2627 H       
  63 H63           -8.0440     3.5584     2.5612 H       
  64 H64           -6.6928     2.4421     2.8718 H       
  65 H65           -7.7331     3.4755    -1.1475 H       
  66 H66           -8.6515     4.1619     0.2140 H       
  67 H67           -6.9770     4.6866    -0.0845 H       
  68 H68           -8.8383    -0.6628     1.8889 H       
  69 H69          -10.3016    -2.6354     1.8916 H       
  70 H70          -10.4389    -2.5227    -2.4008 H       
  71 H71           -8.9750    -0.5506    -2.3882 H       
  72 H72          -11.1501    -4.7057    -0.9401 H       
  73 H73          -12.9256    -4.8875     0.7204 H       
  74 H74           -7.3310     0.7572    -0.9488 H       
  75 H75            0.5959     5.4161     0.5655 H       
  76 H76            1.0702     5.6910    -1.1280 H       
  77 H77           -0.6296     5.8858    -0.6369 H       
  78 H78            1.9272     5.1462    -2.5510 H       
  79 H79            5.4713     2.0524    -1.0339 H       
  80 H80            3.1325     1.5496    -0.5597 H       
  81 H81            6.8410     7.7749    -3.2522 H       
  82 H82            7.5129     6.6009    -4.4091 H       
  83 H83            5.9671     7.4107    -4.7594 H       
  84 H84          -14.0037    -2.0491     2.6486 H       
@<TRIPOS>BOND
   1    1    2 ar
   2    1    7 1
   3    1    6 ar
   4    2    3 ar
   5    2    9 1
   6    3    4 ar
   7    3   47 1
   8    4    5 ar
   9    4   48 1
  10    5    6 ar
  11    5   16 1
  12    6   49 1
  13    7    8 1
  14    7   33 1
  15    8    9 2
  16    8   34 1
  17    9   10 1
  18   10   11 1
  19   10   15 1
  20   10   50 1
  21   11   12 1
  22   11   51 1
  23   11   52 1
  24   12   13 1
  25   12   53 1
  26   12   54 1
  27   13   14 1
  28   13   55 1
  29   13   56 1
  30   14   15 1
  31   14   57 1
  32   14   58 1
  33   15   59 1
  34   15   60 1
  35   16   17 2
  36   16   18 am
  37   18   19 1
  38   18   61 1
  39   19   20 1
  40   19   21 1
  41   19   22 1
  42   20   24 2
  43   20   32 am
  44   21   62 1
  45   21   63 1
  46   21   64 1
  47   22   65 1
  48   22   66 1
  49   22   67 1
  50   23   25 ar
  51   23   29 ar
  52   23   32 1
  53   25   26 ar
  54   25   68 1
  55   26   27 ar
  56   26   69 1
  57   27   28 ar
  58   27   30 1
  59   28   29 ar
  60   28   70 1
  61   29   71 1
  62   30   31 2
  63   30   72 1
  64   31   44 1
  65   31   73 1
  66   32   74 1
  67   33   75 1
  68   33   76 1
  69   33   77 1
  70   34   35 ar
  71   34   39 ar
  72   35   36 ar
  73   35   78 1
  74   36   37 ar
  75   36   40 1
  76   37   38 ar
  77   37   42 1
  78   38   39 ar
  79   38   79 1
  80   39   80 1
  81   40   41 2
  82   41   42 1
  83   41   43 1
  84   43   81 1
  85   43   82 1
  86   43   83 1
  87   44   45 2
  88   44   46 1
  89   46   84 1

#	End of record

