#	Name: ASD07300482
#	Creating user name:	WinNT
#	Creation time:	15. 06. 2019 21:09

#	Modifying user name:	WinNT
#	Modification time:	15. 06. 2019 21:09

#	Program:	/corina/corina34_cracker 3.40 0067  02.08.2006

@<TRIPOS>MOLECULE
ASD07300482
  76   79    0    0    0
SMALL
NO_CHARGES


@<TRIPOS>ATOM
   1 C1            -0.0169     1.3939     0.0097 C.ar    
   2 C2             0.0021    -0.0041     0.0020 C.ar    
   3 C3             1.2199    -0.6675    -0.0128 C.ar    
   4 C4             2.3808     0.0922    -0.0194 C.ar    
   5 C5             2.2877     1.4712    -0.0111 C.ar    
   6 N6             1.1159     2.0766     0.0026 N.ar    
   7 C7            -2.1142     0.6619     0.0347 C.2     
   8 N8            -1.3548     1.7732     0.0301 N.am    
   9 N9            -1.3236    -0.4281     0.0124 N.am    
  10 O10           -3.3305     0.6447     0.0513 O.2     
  11 C11           -1.7800    -1.8201     0.0093 C.3     
  12 O12           -2.2473    -2.1711     1.3133 O.3     
  13 C13           -3.5718    -1.7164     1.5979 C.3     
  14 C14           -3.9656    -2.1463     3.0125 C.3     
  15 Si15          -5.6924    -1.5536     3.3836 Si      
  16 C16           -6.8809    -2.2953     2.1556 C.3     
  17 C17           -6.8327    -3.8212     2.2569 C.3     
  18 C18           -6.1719    -2.0770     5.1060 C.3     
  19 C19           -7.5900    -1.5902     5.4108 C.3     
  20 C20           -5.7511     0.3044     3.2602 C.3     
  21 C21           -4.7750     0.9136     4.2687 C.3     
  22 C22           -1.8301     3.0856     0.0443 C.ar    
  23 C23           -3.2000     3.3280     0.0644 C.ar    
  24 C24           -3.6712     4.6215     0.0784 C.ar    
  25 C25           -2.7734     5.6902     0.0730 C.ar    
  26 C26           -1.3995     5.4445     0.0534 C.ar    
  27 C27           -0.9331     4.1492     0.0442 C.ar    
  28 O28           -2.5364     8.3759     0.0855 O.3     
  29 B29           -3.3080     7.1663     0.0885 Du      
  30 O30           -4.6751     7.6011     0.1082 O.3     
  31 C31           -4.7082     8.7421    -0.7748 C.3     
  32 C32           -3.2582     9.2674    -0.7902 C.3     
  33 C33           -3.2044    10.6997    -0.2549 C.3     
  34 C34           -2.6834     9.2044    -2.2067 C.3     
  35 C35           -5.1358     8.3160    -2.1807 C.3     
  36 C36           -5.6568     9.8113    -0.2290 C.3     
  37 H37            1.2634    -1.7466    -0.0186 H       
  38 H38            3.3476    -0.3892    -0.0305 H       
  39 H39            3.1907     2.0637    -0.0159 H       
  40 H40           -2.5906    -1.9351    -0.7103 H       
  41 H41           -0.9525    -2.4732    -0.2681 H       
  42 H42           -3.6062    -0.6294     1.5258 H       
  43 H43           -4.2672    -2.1504     0.8795 H       
  44 H44           -3.9313    -3.2334     3.0847 H       
  45 H45           -3.2703    -1.7123     3.7310 H       
  46 H46           -7.8912    -1.9485     2.3727 H       
  47 H47           -6.6004    -1.9891     1.1479 H       
  48 H48           -7.1133    -4.1275     3.2647 H       
  49 H49           -7.5281    -4.2552     1.5385 H       
  50 H50           -5.8224    -4.1680     2.0398 H       
  51 H51           -6.1376    -3.1641     5.1782 H       
  52 H52           -5.4765    -1.6430     5.8245 H       
  53 H53           -7.8706    -1.8965     6.4186 H       
  54 H54           -7.6244    -0.5031     5.3386 H       
  55 H55           -8.2854    -2.0242     4.6923 H       
  56 H56           -5.4705     0.6107     2.2525 H       
  57 H57           -6.7614     0.6512     3.4773 H       
  58 H58           -5.0556     0.6073     5.2765 H       
  59 H59           -3.7647     0.5668     4.0516 H       
  60 H60           -4.8094     2.0007     4.1965 H       
  61 H61           -3.8943     2.5007     0.0685 H       
  62 H62           -4.7347     4.8092     0.0932 H       
  63 H63           -0.7029     6.2698     0.0488 H       
  64 H64            0.1299     3.9585     0.0332 H       
  65 H65           -2.1680    11.0350    -0.2179 H       
  66 H66           -3.7751    11.3551    -0.9129 H       
  67 H67           -3.6319    10.7293     0.7473 H       
  68 H68           -2.7441     8.1815    -2.5783 H       
  69 H69           -3.2551     9.8630    -2.8605 H       
  70 H70           -1.6414     9.5238    -2.1905 H       
  71 H71           -6.1401     7.8940    -2.1428 H       
  72 H72           -5.1308     9.1835    -2.8406 H       
  73 H73           -4.4410     7.5668    -2.5603 H       
  74 H74           -5.3288    10.1146     0.7653 H       
  75 H75           -5.6508    10.6756    -0.8930 H       
  76 H76           -6.6667     9.4052    -0.1703 H       
@<TRIPOS>BOND
   1    1    2 ar
   2    1    6 ar
   3    1    8 1
   4    2    3 ar
   5    2    9 1
   6    3    4 ar
   7    3   37 1
   8    4    5 ar
   9    4   38 1
  10    5    6 ar
  11    5   39 1
  12    7    8 am
  13    7    9 am
  14    7   10 2
  15    8   22 1
  16    9   11 1
  17   11   12 1
  18   11   40 1
  19   11   41 1
  20   12   13 1
  21   13   14 1
  22   13   42 1
  23   13   43 1
  24   14   15 1
  25   14   44 1
  26   14   45 1
  27   15   16 1
  28   15   18 1
  29   15   20 1
  30   16   17 1
  31   16   46 1
  32   16   47 1
  33   17   48 1
  34   17   49 1
  35   17   50 1
  36   18   19 1
  37   18   51 1
  38   18   52 1
  39   19   53 1
  40   19   54 1
  41   19   55 1
  42   20   21 1
  43   20   56 1
  44   20   57 1
  45   21   58 1
  46   21   59 1
  47   21   60 1
  48   22   23 ar
  49   22   27 ar
  50   23   24 ar
  51   23   61 1
  52   24   25 ar
  53   24   62 1
  54   25   26 ar
  55   25   29 1
  56   26   27 ar
  57   26   63 1
  58   27   64 1
  59   28   29 1
  60   28   32 1
  61   29   30 1
  62   30   31 1
  63   31   32 1
  64   31   35 1
  65   31   36 1
  66   32   33 1
  67   32   34 1
  68   33   65 1
  69   33   66 1
  70   33   67 1
  71   34   68 1
  72   34   69 1
  73   34   70 1
  74   35   71 1
  75   35   72 1
  76   35   73 1
  77   36   74 1
  78   36   75 1
  79   36   76 1

#	End of record

