#	Name: ASD02560061
#	Creating user name:	WinNT
#	Creation time:	15. 06. 2019 20:24

#	Modifying user name:	WinNT
#	Modification time:	15. 06. 2019 20:24

#	Program:	/corina/corina34_cracker 3.40 0067  02.08.2006

@<TRIPOS>MOLECULE
ASD02560061
  38   40    0    0    0
SMALL
NO_CHARGES


@<TRIPOS>ATOM
   1 C1             0.0599     1.3495     0.0825 C.ar    
   2 C2             0.0882    -0.0324     0.0770 C.ar    
   3 C3             1.2985    -0.6993     0.0469 C.ar    
   4 C4             2.4825     0.0162     0.0223 C.ar    
   5 C5             2.4548     1.3993     0.0278 C.ar    
   6 C6             1.2432     2.0661     0.0579 C.ar    
   7 Cl7            4.0025    -0.8215    -0.0150 Cl      
   8 N8             4.2691     1.4415    -2.2841 N.ar    
   9 C9             4.1417     2.4442    -1.4276 C.ar    
  10 C10            3.7440     2.1792     0.0016 C.3     
  11 C11            4.6186     1.6615    -3.5431 C.ar    
  12 N12            4.8538     2.8837    -3.9955 N.ar    
  13 C13            4.7447     3.9361    -3.1908 C.ar    
  14 C14            4.3779     3.7353    -1.8587 C.ar    
  15 N15            4.9920     5.2147    -3.6673 N.pl3   
  16 C16            5.4764     5.3944    -4.9614 C.ar    
  17 C17            5.0869     6.5075    -5.7001 C.ar    
  18 C18            5.5636     6.6881    -6.9789 C.ar    
  19 C19            6.4398     5.7517    -7.5352 C.ar    
  20 C20            6.8290     4.6345    -6.7903 C.ar    
  21 C21            6.3530     4.4631    -5.5100 C.ar    
  22 N22            4.7415     0.5871    -4.4068 N.pl3   
  23 Cl23           1.2074     3.8017     0.0643 Cl      
  24 C24            6.9373     5.9360    -8.8653 C.1     
  25 N25            7.3319     6.0823    -9.9205 N.1     
  26 H26           -0.8862     1.8701     0.1016 H       
  27 H27           -0.8357    -0.5913     0.0965 H       
  28 H28            1.3200    -1.7790     0.0429 H       
  29 H29            3.6060     3.1269     0.5220 H       
  30 H30            4.5268     1.6038     0.4958 H       
  31 H31            4.2807     4.5704    -1.1807 H       
  32 H32            4.8278     5.9840    -3.0998 H       
  33 H33            4.4097     7.2304    -5.2698 H       
  34 H34            5.2606     7.5521    -7.5518 H       
  35 H35            7.5059     3.9092    -7.2170 H       
  36 H36            6.6535     3.6005    -4.9338 H       
  37 H37            4.5724    -0.3133    -4.0880 H       
  38 H38            4.9967     0.7344    -5.3309 H       
@<TRIPOS>BOND
   1    1    2 ar
   2    1    6 ar
   3    1   26 1
   4    2    3 ar
   5    2   27 1
   6    3    4 ar
   7    3   28 1
   8    4    5 ar
   9    4    7 1
  10    5    6 ar
  11    5   10 1
  12    6   23 1
  13    8    9 ar
  14    8   11 ar
  15    9   10 1
  16    9   14 ar
  17   10   29 1
  18   10   30 1
  19   11   12 ar
  20   11   22 1
  21   12   13 ar
  22   13   14 ar
  23   13   15 1
  24   14   31 1
  25   15   16 1
  26   15   32 1
  27   16   17 ar
  28   16   21 ar
  29   17   18 ar
  30   17   33 1
  31   18   19 ar
  32   18   34 1
  33   19   20 ar
  34   19   24 1
  35   20   21 ar
  36   20   35 1
  37   21   36 1
  38   22   37 1
  39   22   38 1
  40   24   25 3

#	End of record

