#	Name: ASD01208861
#	Creating user name:	WinNT
#	Creation time:	15. 06. 2019 19:10

#	Modifying user name:	WinNT
#	Modification time:	15. 06. 2019 19:10

#	Program:	/corina/corina34_cracker 3.40 0067  02.08.2006

@<TRIPOS>MOLECULE
ASD01208861
  48   50    0    0    0
SMALL
NO_CHARGES


@<TRIPOS>ATOM
   1 C1            -0.3172     1.7809     1.0037 C.2     
   2 C2            -0.2273     0.4175     0.4416 C.ar    
   3 C3             1.0161    -0.2013     0.3011 C.ar    
   4 C4             1.0956    -1.4795    -0.2257 C.ar    
   5 C5            -0.0582    -2.1453    -0.6137 C.ar    
   6 C6            -1.2963    -1.5343    -0.4760 C.ar    
   7 C7            -1.3857    -0.2577     0.0551 C.ar    
   8 O8             0.6919     2.3651     1.3443 O.2     
   9 O9            -1.5176     2.3783     1.1333 O.3     
  10 O10           -2.4232    -2.1908    -0.8576 O.3     
  11 C11           -2.9918    -1.8463    -2.0419 C.ar    
  12 C12           -4.1640    -2.4672    -2.4542 C.ar    
  13 C13           -4.7440    -2.1203    -3.6553 C.ar    
  14 C14           -4.1518    -1.1433    -4.4580 C.ar    
  15 C15           -2.9735    -0.5214    -4.0401 C.ar    
  16 C16           -2.4027    -0.8698    -2.8351 C.ar    
  17 O17           -4.3097     0.1522    -6.6170 O.3     
  18 C18           -4.7701    -0.7688    -5.7467 C.2     
  19 N19           -5.8702    -1.2708    -6.2577 N.2     
  20 N20           -6.1070    -0.7083    -7.3903 N.2     
  21 C21           -5.1759     0.1675    -7.6453 C.2     
  22 C22           -5.0860     1.0392    -8.8713 C.3     
  23 O23            2.3058    -2.0825    -0.3633 O.3     
  24 C24            3.5895    -4.1301    -0.3686 C.3     
  25 C25            2.3083    -3.4330    -0.8305 C.3     
  26 C26            2.2444    -3.4439    -2.3591 C.3     
  27 O27            4.7184    -3.5128    -0.9905 O.3     
  28 C28            5.9725    -4.0920    -0.6245 C.3     
  29 H29            1.9148     0.3163     0.6026 H       
  30 H30            0.0076    -3.1419    -1.0246 H       
  31 H31           -2.3501     0.2155     0.1662 H       
  32 H32           -1.5260     3.2705     1.5061 H       
  33 H33           -4.6213    -3.2231    -1.8329 H       
  34 H34           -5.6551    -2.6038    -3.9753 H       
  35 H35           -2.5123     0.2344    -4.6585 H       
  36 H36           -1.4937    -0.3861    -2.5091 H       
  37 H37           -4.5128     0.5241    -9.6422 H       
  38 H38           -6.0891     1.2480    -9.2430 H       
  39 H39           -4.5910     1.9760    -8.6155 H       
  40 H40            3.6795    -4.0447     0.7143 H       
  41 H41            3.5513    -5.1829    -0.6481 H       
  42 H42            1.4429    -3.9587    -0.4269 H       
  43 H43            3.1098    -2.9182    -2.7627 H       
  44 H44            2.2463    -4.4740    -2.7155 H       
  45 H45            1.3316    -2.9473    -2.6882 H       
  46 H46            6.7784    -3.5679    -1.1382 H       
  47 H47            6.1118    -4.0058     0.4531 H       
  48 H48            5.9837    -5.1441    -0.9093 H       
@<TRIPOS>BOND
   1    1    2 1
   2    1    8 2
   3    1    9 1
   4    2    3 ar
   5    2    7 ar
   6    3    4 ar
   7    3   29 1
   8    4    5 ar
   9    4   23 1
  10    5    6 ar
  11    5   30 1
  12    6    7 ar
  13    6   10 1
  14    7   31 1
  15    9   32 1
  16   10   11 1
  17   11   12 ar
  18   11   16 ar
  19   12   13 ar
  20   12   33 1
  21   13   14 ar
  22   13   34 1
  23   14   15 ar
  24   14   18 1
  25   15   16 ar
  26   15   35 1
  27   16   36 1
  28   17   18 1
  29   17   21 1
  30   18   19 2
  31   19   20 1
  32   20   21 2
  33   21   22 1
  34   22   37 1
  35   22   38 1
  36   22   39 1
  37   23   25 1
  38   24   25 1
  39   24   27 1
  40   24   40 1
  41   24   41 1
  42   25   26 1
  43   25   42 1
  44   26   43 1
  45   26   44 1
  46   26   45 1
  47   27   28 1
  48   28   46 1
  49   28   47 1
  50   28   48 1

#	End of record

