#	Name: ASD05720059
#	Creating user name:	WinNT
#	Creation time:	15. 06. 2019 21:01

#	Modifying user name:	WinNT
#	Modification time:	15. 06. 2019 21:01

#	Program:	/corina/corina34_cracker 3.40 0067  02.08.2006

@<TRIPOS>MOLECULE
ASD05720059
  52   57    0    0    0
SMALL
NO_CHARGES


@<TRIPOS>ATOM
   1 O1             1.5108     1.5268    -0.5250 O.3     
   2 C2             1.8868     0.2569    -0.7127 C.2     
   3 N3             1.1373    -0.6340    -0.0492 N.am    
   4 C4             0.0991     0.0850     0.7049 C.3     
   5 C5             0.3634     1.5662     0.3722 C.3     
   6 O6             2.8221    -0.0599    -1.4205 O.2     
   7 C7             2.6979    -3.8445    -0.2967 C.2     
   8 N8             2.5122    -2.5211    -0.2735 N.2     
   9 C9             1.3119    -2.0115    -0.0707 C.2     
  10 C10            0.2068    -2.8648     0.1247 C.2     
  11 C11            0.3911    -4.2044     0.1018 C.2     
  12 N12            1.6465    -4.7026    -0.1105 N.pl3   
  13 N13            2.1391    -6.0102    -0.1870 N.2     
  14 C14            3.4300    -5.9740    -0.4093 C.2     
  15 C15            3.8369    -4.6368    -0.4929 C.2     
  16 C16            5.2129    -4.1511    -0.7407 C.ar    
  17 C17            6.2578    -4.5611     0.0891 C.ar    
  18 C18            7.5396    -4.1079    -0.1425 C.ar    
  19 C19            7.7908    -3.2390    -1.2074 C.ar    
  20 C20            6.7459    -2.8305    -2.0354 C.ar    
  21 C21            5.4668    -3.2875    -1.8077 C.ar    
  22 N22           10.9138    -1.7377    -2.2890 N.pl3   
  23 N23            9.5297    -1.9341    -2.4227 N.2     
  24 C24            9.1686    -2.7509    -1.4568 C.2     
  25 N25           10.2526    -3.0687    -0.7357 N.2     
  26 C26           11.3029    -2.4660    -1.2272 C.2     
  27 F27            8.5518    -4.5035     0.6602 F       
  28 C28            0.2552    -0.1647     2.2063 C.3     
  29 C29           -0.0269    -1.6144     2.5064 C.ar    
  30 C30            1.0196    -2.5028     2.6692 C.ar    
  31 C31            0.7609    -3.8325     2.9444 C.ar    
  32 C32           -0.5443    -4.2738     3.0572 C.ar    
  33 C33           -1.5907    -3.3852     2.8953 C.ar    
  34 C34           -1.3320    -2.0546     2.6244 C.ar    
  35 H35           -0.8940    -0.2119     0.3675 H       
  36 H36            0.6049     2.1238     1.2771 H       
  37 H37           -0.4991     2.0049    -0.1295 H       
  38 H38           -0.7774    -2.4527     0.2914 H       
  39 H39           -0.4439    -4.8732     0.2500 H       
  40 H40            4.0740    -6.8346    -0.5141 H       
  41 H41            6.0625    -5.2324     0.9123 H       
  42 H42            6.9405    -2.1589    -2.8584 H       
  43 H43            4.6590    -2.9740    -2.4523 H       
  44 H44           11.4791    -1.1881    -2.8540 H       
  45 H45           12.3107    -2.5401    -0.8461 H       
  46 H46            1.2731     0.0780     2.5111 H       
  47 H47           -0.4476     0.4631     2.7540 H       
  48 H48            2.0393    -2.1581     2.5811 H       
  49 H49            1.5785    -4.5268     3.0710 H       
  50 H50           -0.7464    -5.3128     3.2716 H       
  51 H51           -2.6105    -3.7300     2.9831 H       
  52 H52           -2.1494    -1.3596     2.5015 H       
@<TRIPOS>BOND
   1    1    2 1
   2    1    5 1
   3    2    3 am
   4    2    6 2
   5    3    4 1
   6    3    9 1
   7    4    5 1
   8    4   28 1
   9    4   35 1
  10    5   36 1
  11    5   37 1
  12    7    8 1
  13    7   12 1
  14    7   15 2
  15    8    9 2
  16    9   10 1
  17   10   11 2
  18   10   38 1
  19   11   12 1
  20   11   39 1
  21   12   13 1
  22   13   14 2
  23   14   15 1
  24   14   40 1
  25   15   16 1
  26   16   17 ar
  27   16   21 ar
  28   17   18 ar
  29   17   41 1
  30   18   19 ar
  31   18   27 1
  32   19   20 ar
  33   19   24 1
  34   20   21 ar
  35   20   42 1
  36   21   43 1
  37   22   23 1
  38   22   26 1
  39   22   44 1
  40   23   24 2
  41   24   25 1
  42   25   26 2
  43   26   45 1
  44   28   29 1
  45   28   46 1
  46   28   47 1
  47   29   30 ar
  48   29   34 ar
  49   30   31 ar
  50   30   48 1
  51   31   32 ar
  52   31   49 1
  53   32   33 ar
  54   32   50 1
  55   33   34 ar
  56   33   51 1
  57   34   52 1

#	End of record

