#	Name: ASD00841942
#	Creating user name:	WinNT
#	Creation time:	15. 06. 2019 18:43

#	Modifying user name:	WinNT
#	Modification time:	15. 06. 2019 18:43

#	Program:	/corina/corina34_cracker 3.40 0067  02.08.2006

@<TRIPOS>MOLECULE
ASD00841942
  89   94    0    0    0
SMALL
NO_CHARGES


@<TRIPOS>ATOM
   1 C1             1.0068     1.5579    -0.3811 C.ar    
   2 C2             1.3136     0.2278    -0.6281 C.ar    
   3 C3             1.2442    -0.7004     0.4009 C.ar    
   4 C4             0.8698    -0.2981     1.6682 C.ar    
   5 C5             0.5640     1.0284     1.9117 C.ar    
   6 C6             0.6329     1.9552     0.8883 C.ar    
   7 C7             1.5764    -2.1462     0.1360 C.3     
   8 C8             1.3074    -2.9862     1.3664 C.2     
   9 C9             0.7732    -2.6696    -1.0564 C.3     
  10 C10           -0.6960    -2.4394    -0.8123 C.2     
  11 N11           -1.6064    -2.9102    -1.6876 N.am    
  12 O12           -1.0592    -1.8304     0.1717 O.2     
  13 C13           -3.0328    -2.5979    -1.5246 C.3     
  14 C14           -3.8271    -3.9079    -1.5214 C.3     
  15 C15           -3.4982    -4.7022    -2.7876 C.3     
  16 C16           -2.0061    -5.0420    -2.8054 C.3     
  17 C17           -1.1906    -3.7403    -2.8263 C.3     
  18 C18           -4.3158    -5.9953    -2.8048 C.3     
  19 C19           -5.8090    -5.6568    -2.7886 C.3     
  20 C20           -6.6214    -6.9514    -2.8674 C.3     
  21 N21           -6.2778    -7.6721    -4.0999 N.3     
  22 C22           -4.8587    -8.0492    -4.1165 C.3     
  23 C23           -3.9937    -6.7874    -4.0749 C.3     
  24 C24           -7.1376    -8.8498    -4.2781 C.3     
  25 O25            0.2362    -3.1388     1.9144 O.2     
  26 N26            2.4784    -3.5307     1.7376 N.am    
  27 C27            3.0589    -2.3131    -0.1063 C.ar    
  28 C28            3.5261    -3.1559     0.8947 C.ar    
  29 C29            3.9130    -1.8110    -1.0621 C.ar    
  30 C30            5.2565    -2.1454    -1.0326 C.ar    
  31 C31            5.7351    -2.9852    -0.0395 C.ar    
  32 C32            4.8782    -3.4894     0.9201 C.ar    
  33 Cl33           6.3375    -1.5153    -2.2360 Cl      
  34 F34            7.0456    -3.3123    -0.0094 F       
  35 C35            2.4053    -6.1804     2.4779 C.ar    
  36 C36            1.1622    -6.5669     1.9990 C.ar    
  37 C37            3.4467    -7.0880     2.5048 C.ar    
  38 C38            3.2507    -8.3802     2.0544 C.ar    
  39 C39            2.0123    -8.7680     1.5765 C.ar    
  40 C40            0.9679    -7.8646     1.5480 C.ar    
  41 H41            1.8617    -9.7782     1.2252 H       
  42 O42            0.1361    -5.6762     1.9721 O.3     
  43 C43           -1.1158    -6.1438     1.4659 C.3     
  44 S44            2.6580    -4.5313     3.0448 S.o2    
  45 O45            4.0226    -4.4448     3.4319 O.2     
  46 O46            1.5807    -4.2398     3.9243 O.2     
  47 O47            1.6812    -0.1655    -1.8759 O.3     
  48 C48            2.1643     0.2243    -4.2115 C.3     
  49 C49            1.6223     0.8188    -2.9101 C.3     
  50 H50            1.0644     2.2830    -1.1794 H       
  51 H51            0.8156    -1.0202     2.4694 H       
  52 H52            0.2708     1.3408     2.9031 H       
  53 H53            0.3935     2.9905     1.0810 H       
  54 H54            1.0785    -2.1418    -1.9599 H       
  55 H55            0.9583    -3.7367    -1.1789 H       
  56 H56           -3.1869    -2.0750    -0.5807 H       
  57 H57           -3.3663    -1.9704    -2.3510 H       
  58 H58           -3.5574    -4.4948    -0.6434 H       
  59 H59           -4.8941    -3.6863    -1.4978 H       
  60 H60           -3.7452    -4.1049    -3.6653 H       
  61 H61           -1.7536    -5.6183    -1.9153 H       
  62 H62           -1.7771    -5.6277    -3.6957 H       
  63 H63           -1.3750    -3.2085    -3.7597 H       
  64 H64           -0.1292    -3.9727    -2.7392 H       
  65 H65           -4.0686    -6.5943    -1.9283 H       
  66 H66           -6.0528    -5.1298    -1.8662 H       
  67 H67           -6.0481    -5.0246    -3.6437 H       
  68 H68           -6.3921    -7.5771    -2.0049 H       
  69 H69           -7.6850    -6.7131    -2.8706 H       
  70 H70           -4.6377    -8.6698    -3.2481 H       
  71 H71           -4.6421    -8.6083    -5.0268 H       
  72 H72           -4.2043    -6.1729    -4.9503 H       
  73 H73           -2.9405    -7.0682    -4.0715 H       
  74 H74           -8.1791    -8.5338    -4.3368 H       
  75 H75           -6.8619    -9.3651    -5.1982 H       
  76 H76           -7.0098    -9.5244    -3.4316 H       
  77 H77            3.5356    -1.1572    -1.8344 H       
  78 H78            5.2577    -4.1431     1.6916 H       
  79 H79            4.4148    -6.7875     2.8775 H       
  80 H80            4.0662    -9.0880     2.0755 H       
  81 H81            0.0007    -8.1682     1.1754 H       
  82 H82           -0.9897    -6.4766     0.4357 H       
  83 H83           -1.4664    -6.9760     2.0763 H       
  84 H84           -1.8461    -5.3354     1.4998 H       
  85 H85            2.2011     0.9991    -4.9773 H       
  86 H86            3.1675    -0.1670    -4.0421 H       
  87 H87            1.5106    -0.5828    -4.5423 H       
  88 H88            0.5882     1.1309    -3.0562 H       
  89 H89            2.2253     1.6812    -2.6257 H       
@<TRIPOS>BOND
   1    1    2 ar
   2    1    6 ar
   3    1   50 1
   4    2    3 ar
   5    2   47 1
   6    3    4 ar
   7    3    7 1
   8    4    5 ar
   9    4   51 1
  10    5    6 ar
  11    5   52 1
  12    6   53 1
  13    7    8 1
  14    7    9 1
  15    7   27 1
  16    8   25 2
  17    8   26 am
  18    9   10 1
  19    9   54 1
  20    9   55 1
  21   10   11 am
  22   10   12 2
  23   11   13 1
  24   11   17 1
  25   13   14 1
  26   13   56 1
  27   13   57 1
  28   14   15 1
  29   14   58 1
  30   14   59 1
  31   15   16 1
  32   15   18 1
  33   15   60 1
  34   16   17 1
  35   16   61 1
  36   16   62 1
  37   17   63 1
  38   17   64 1
  39   18   19 1
  40   18   23 1
  41   18   65 1
  42   19   20 1
  43   19   66 1
  44   19   67 1
  45   20   21 1
  46   20   68 1
  47   20   69 1
  48   21   22 1
  49   21   24 1
  50   22   23 1
  51   22   70 1
  52   22   71 1
  53   23   72 1
  54   23   73 1
  55   24   74 1
  56   24   75 1
  57   24   76 1
  58   26   44 am
  59   26   28 1
  60   27   28 ar
  61   27   29 ar
  62   28   32 ar
  63   29   30 ar
  64   29   77 1
  65   30   31 ar
  66   30   33 1
  67   31   32 ar
  68   31   34 1
  69   32   78 1
  70   35   36 ar
  71   35   37 ar
  72   35   44 1
  73   36   42 1
  74   36   40 ar
  75   37   38 ar
  76   37   79 1
  77   38   39 ar
  78   38   80 1
  79   39   40 ar
  80   39   41 1
  81   40   81 1
  82   42   43 1
  83   43   82 1
  84   43   83 1
  85   43   84 1
  86   44   45 2
  87   44   46 2
  88   47   49 1
  89   48   49 1
  90   48   85 1
  91   48   86 1
  92   48   87 1
  93   49   88 1
  94   49   89 1

#	End of record

