#	Name: ASD04590526
#	Creating user name:	WinNT
#	Creation time:	15. 06. 2019 20:51

#	Modifying user name:	WinNT
#	Modification time:	15. 06. 2019 20:51

#	Program:	/corina/corina34_cracker 3.40 0067  02.08.2006

@<TRIPOS>MOLECULE
ASD04590526
  72   76    0    0    0
SMALL
NO_CHARGES


@<TRIPOS>ATOM
   1 C1            -0.0167     1.3832     0.0096 C.ar    
   2 C2             0.0021    -0.0041     0.0020 C.ar    
   3 C3            -2.3977    -0.0431     0.0243 C.ar    
   4 C4            -2.4105     1.3630     0.0440 C.ar    
   5 C5            -1.2148     2.0662     0.0305 C.ar    
   6 N6            -3.6888    -0.4559     0.0444 N.2     
   7 C7            -4.4840     0.5860     0.0747 C.2     
   8 N8            -3.7410     1.7359     0.0757 N.pl3   
   9 C9            -5.9601     0.5280     0.1034 C.2     
  10 C10           -6.7460    -0.6475     0.1033 C.2     
  11 C11           -8.0484    -0.2740     0.1343 C.2     
  12 N12           -8.0920     1.0841     0.1534 N.pl3   
  13 N13           -6.7761     1.5632     0.1393 N.2     
  14 N14           -6.2631    -1.9665     0.0756 N.am    
  15 C15           -7.1274    -3.0007     0.0790 C.2     
  16 O16           -8.3221    -2.7926     0.1061 O.2     
  17 C17           -1.1738    -0.7192     0.0089 C.ar    
  18 C18           -6.6094    -4.4156     0.0493 C.3     
  19 C19           -5.7449    -4.6595     1.2593 C.ar    
  20 C20            1.2811     2.1491     0.0014 C.3     
  21 C21           -4.3681    -4.6073     1.1469 C.ar    
  22 C22           -7.5938    -6.5870    -0.4537 C.2     
  23 N23           -7.7384    -5.3492     0.0595 N.am    
  24 O24           -8.6313    -7.4450    -0.4444 O.3     
  25 C25           -6.3287    -4.9300     2.4827 C.ar    
  26 C26           -5.5357    -5.1538     3.5926 C.ar    
  27 C27           -4.1588    -5.1076     3.4790 C.ar    
  28 C28           -3.5750    -4.8312     2.2568 C.ar    
  29 O29           -6.5271    -6.9286    -0.9249 O.2     
  30 C30           -8.4035    -8.7611    -1.0138 C.3     
  31 C31           -7.2828    -9.4628    -0.2441 C.3     
  32 C32           -9.6864    -9.5889    -0.9143 C.3     
  33 C33           -8.0012    -8.6184    -2.4831 C.3     
  34 N34            1.6896     2.4054    -1.3862 N.3     
  35 C35            2.8167     3.3478    -1.4381 C.3     
  36 C36            3.2477     3.5398    -2.8946 C.3     
  37 O37            2.1286     3.9915    -3.6620 O.3     
  38 C38            1.0129     3.0972    -3.6342 C.3     
  39 C39            0.5593     2.9007    -2.1852 C.3     
  40 H40            0.9470    -0.5269    -0.0098 H       
  41 H41           -1.2220     3.1462     0.0366 H       
  42 H42           -4.0842     2.6430     0.0956 H       
  43 H43           -8.9004    -0.9377     0.1421 H       
  44 H44           -8.8952     1.6274     0.1764 H       
  45 H45           -5.3078    -2.1329     0.0540 H       
  46 H46           -1.1513    -1.7990     0.0022 H       
  47 H47           -6.0202    -4.5678    -0.8550 H       
  48 H48            1.1467     3.0974     0.5216 H       
  49 H49            2.0512     1.5645     0.5047 H       
  50 H50           -3.9120    -4.3920     0.1919 H       
  51 H51           -8.5899    -5.0764     0.4356 H       
  52 H52           -7.4045    -4.9661     2.5715 H       
  53 H53           -5.9919    -5.3644     4.5487 H       
  54 H54           -3.5392    -5.2821     4.3462 H       
  55 H55           -2.4993    -4.7950     2.1680 H       
  56 H56           -7.5693    -9.5644     0.8027 H       
  57 H57           -7.1117   -10.4508    -0.6715 H       
  58 H58           -6.3688    -8.8731    -0.3149 H       
  59 H59          -10.4848    -9.0890    -1.4627 H       
  60 H60           -9.5153   -10.5769    -1.3418 H       
  61 H61           -9.9729    -9.6905     0.1324 H       
  62 H62           -7.0873    -8.0287    -2.5540 H       
  63 H63           -7.8302    -9.6064    -2.9106 H       
  64 H64           -8.7997    -8.1185    -3.0315 H       
  65 H65            2.5093     4.3063    -1.0201 H       
  66 H66            3.6512     2.9493    -0.8611 H       
  67 H67            4.0455     4.2810    -2.9434 H       
  68 H68            3.6057     2.5919    -3.2962 H       
  69 H69            0.1943     3.5183    -4.2179 H       
  70 H70            1.3059     2.1364    -4.0574 H       
  71 H71           -0.2541     2.1757    -2.1536 H       
  72 H72            0.2157     3.8521    -1.7792 H       
@<TRIPOS>BOND
   1    1    2 ar
   2    1   20 1
   3    1    5 ar
   4    2   17 ar
   5    2   40 1
   6    3    4 ar
   7    3    6 1
   8    3   17 ar
   9    4    5 ar
  10    4    8 1
  11    5   41 1
  12    6    7 2
  13    7    8 1
  14    7    9 1
  15    8   42 1
  16    9   10 1
  17    9   13 2
  18   10   11 2
  19   10   14 1
  20   11   12 1
  21   11   43 1
  22   12   13 1
  23   12   44 1
  24   14   15 am
  25   14   45 1
  26   15   16 2
  27   15   18 1
  28   17   46 1
  29   18   19 1
  30   18   23 1
  31   18   47 1
  32   19   21 ar
  33   19   25 ar
  34   20   34 1
  35   20   48 1
  36   20   49 1
  37   21   28 ar
  38   21   50 1
  39   22   23 am
  40   22   24 1
  41   22   29 2
  42   23   51 1
  43   24   30 1
  44   25   26 ar
  45   25   52 1
  46   26   27 ar
  47   26   53 1
  48   27   28 ar
  49   27   54 1
  50   28   55 1
  51   30   31 1
  52   30   32 1
  53   30   33 1
  54   31   56 1
  55   31   57 1
  56   31   58 1
  57   32   59 1
  58   32   60 1
  59   32   61 1
  60   33   62 1
  61   33   63 1
  62   33   64 1
  63   34   35 1
  64   34   39 1
  65   35   36 1
  66   35   65 1
  67   35   66 1
  68   36   37 1
  69   36   67 1
  70   36   68 1
  71   37   38 1
  72   38   39 1
  73   38   69 1
  74   38   70 1
  75   39   71 1
  76   39   72 1

#	End of record

