#	Name: ASD02508371
#	Creating user name:	WinNT
#	Creation time:	15. 06. 2019 20:24

#	Modifying user name:	WinNT
#	Modification time:	15. 06. 2019 20:24

#	Program:	/corina/corina34_cracker 3.40 0067  02.08.2006

@<TRIPOS>MOLECULE
ASD02508371
  37   39    0    0    0
SMALL
NO_CHARGES


@<TRIPOS>ATOM
   1 C1            -0.1933     1.7615     0.2772 C.2     
   2 C2            -0.1745     0.3619     0.4447 C.2     
   3 C3             1.1136    -0.0337     0.4037 C.2     
   4 N4             1.8938     1.0723     0.2166 N.pl3   
   5 C5             1.0840     2.1702     0.1399 C.2     
   6 C6             3.2886     1.0794     0.1201 C.ar    
   7 C7             4.0288     1.9588     0.9029 C.ar    
   8 N8             3.8923     0.2458    -0.7109 N.ar    
   9 C9             5.2056     0.2194    -0.8325 C.ar    
  10 C10            6.0031     1.0680    -0.0903 C.ar    
  11 C11            5.4097     1.9548     0.7974 C.ar    
  12 S12            1.6912    -1.6906     0.5643 S.o2    
  13 O13            1.6072    -2.2720    -0.7296 O.2     
  14 O14            2.8993    -1.6239     1.3095 O.2     
  15 N15            0.6011    -2.5001     1.5123 N.am    
  16 C16            0.3850    -2.0934     2.8309 C.ar    
  17 C17           -0.9091    -1.9963     3.3259 C.ar    
  18 C18            1.2474    -1.3891     4.9562 C.ar    
  19 C19            1.4641    -1.7909     3.6514 C.ar    
  20 C20           -1.1200    -1.5941     4.6314 C.ar    
  21 C21           -0.0433    -1.2878     5.4449 C.ar    
  22 Cl22           3.2329     3.0470     1.9965 Cl      
  23 Cl23           2.5955    -1.0108     5.9824 Cl      
  24 Cl24          -2.7372    -1.4725     5.2509 Cl      
  25 C25            7.5023     1.0278    -0.2385 C.3     
  26 F26            7.8517     0.0554    -1.1818 F       
  27 F27            7.9624     2.2781    -0.6653 F       
  28 F28            8.0844     0.7124     0.9939 F       
  29 H29           -1.0708     2.3908     0.2576 H       
  30 H30           -1.0348    -0.2767     0.5809 H       
  31 H31            1.4108     3.1892    -0.0058 H       
  32 H32            5.6631    -0.4754    -1.5212 H       
  33 H33            6.0109     2.6290     1.3895 H       
  34 H34            0.1126    -3.2566     1.1519 H       
  35 H35           -1.7499    -2.2346     2.6912 H       
  36 H36            2.4716    -1.8698     3.2705 H       
  37 H37           -0.2104    -0.9734     6.4646 H       
@<TRIPOS>BOND
   1    1    2 1
   2    1    5 2
   3    1   29 1
   4    2    3 2
   5    2   30 1
   6    3    4 1
   7    3   12 1
   8    4    5 1
   9    4    6 1
  10    5   31 1
  11    6    7 ar
  12    6    8 ar
  13    7   22 1
  14    7   11 ar
  15    8    9 ar
  16    9   10 ar
  17    9   32 1
  18   10   11 ar
  19   10   25 1
  20   11   33 1
  21   12   13 2
  22   12   14 2
  23   12   15 am
  24   15   16 1
  25   15   34 1
  26   16   17 ar
  27   16   19 ar
  28   17   20 ar
  29   17   35 1
  30   18   19 ar
  31   18   23 1
  32   18   21 ar
  33   19   36 1
  34   20   21 ar
  35   20   24 1
  36   21   37 1
  37   25   26 1
  38   25   27 1
  39   25   28 1

#	End of record

