#	Name: ASD03330537
#	Creating user name:	WinNT
#	Creation time:	15. 06. 2019 20:37

#	Modifying user name:	WinNT
#	Modification time:	15. 06. 2019 20:37

#	Program:	/corina/corina34_cracker 3.40 0067  02.08.2006

@<TRIPOS>MOLECULE
ASD03330537
  64   66    0    0    0
SMALL
NO_CHARGES


@<TRIPOS>ATOM
   1 C1            -0.0550     1.9983     1.7791 C.2     
   2 N2            -0.1422     0.7061     2.1939 N.pl3   
   3 C3             1.2217     2.1953     1.3485 C.2     
   4 N4             1.8885     1.0282     1.4874 N.2     
   5 C5             1.0761     0.1271     1.9887 C.2     
   6 C6             1.4234    -1.2794     2.2827 C.ar    
   7 C7             1.7767     3.4557     0.8244 C.2     
   8 O8             1.0727     4.4444     0.7470 O.2     
   9 C9             3.6162     4.7658    -0.0905 C.3     
  10 N10            3.0644     3.5127     0.4307 N.am    
  11 C11            3.3073     4.8765    -1.5849 C.3     
  12 C12            1.7971     4.7645    -1.8032 C.3     
  13 C13            3.7995     6.2272    -2.1086 C.3     
  14 C14            4.0164     3.7487    -2.3372 C.3     
  15 C15            5.1088     4.7819     0.1165 C.2     
  16 N16            5.7943     5.9354    -0.0098 N.am    
  17 O17            5.6932     3.7568     0.3968 O.2     
  18 C18            7.2537     5.9380     0.1182 C.3     
  19 C19           -1.3347     0.0764     2.7674 C.3     
  20 C20           -2.5497     0.4175     1.8990 C.3     
  21 C21           -3.1617     1.7353     2.3630 C.3     
  22 N22           -2.1299     2.6527     2.8508 N.3     
  23 C23           -1.1786     3.0022     1.7854 C.3     
  24 C24           -2.7314     3.8584     3.4359 C.3     
  25 C25            1.0669    -1.8489     3.5054 C.ar    
  26 C26            2.1066    -2.0486     1.3334 C.ar    
  27 C27            2.4277    -3.3662     1.6184 C.ar    
  28 C28            2.0740    -3.9176     2.8349 C.ar    
  29 C29            1.3936    -3.1617     3.7741 C.ar    
  30 O30            2.4530    -1.5058     0.1377 O.3     
  31 C31            3.1486    -2.3508    -0.7811 C.3     
  32 H32            3.1672     5.6075     0.4367 H       
  33 H33            3.6258     2.7241     0.4924 H       
  34 H34            1.2919     5.5680    -1.2672 H       
  35 H35            1.5771     4.8434    -2.8678 H       
  36 H36            1.4465     3.8023    -1.4301 H       
  37 H37            4.8434     6.3672    -1.8279 H       
  38 H38            3.7090     6.2507    -3.1946 H       
  39 H39            3.1968     7.0260    -1.6765 H       
  40 H40            3.6658     2.7864    -1.9640 H       
  41 H41            3.7964     3.8276    -3.4018 H       
  42 H42            5.0923     3.8285    -2.1816 H       
  43 H43            5.3213     6.7638    -0.1855 H       
  44 H44            7.5323     5.5731     1.1068 H       
  45 H45            7.6864     5.2897    -0.6437 H       
  46 H46            7.6281     6.9532    -0.0132 H       
  47 H47           -1.1984    -1.0047     2.7947 H       
  48 H48           -1.4934     0.4502     3.7789 H       
  49 H49           -2.2375     0.5092     0.8587 H       
  50 H50           -3.2913    -0.3767     1.9852 H       
  51 H51           -3.6870     2.1993     1.5282 H       
  52 H52           -3.8721     1.5368     3.1655 H       
  53 H53           -0.7761     3.9985     1.9686 H       
  54 H54           -1.6880     2.9852     0.8219 H       
  55 H55           -3.3716     3.5761     4.2717 H       
  56 H56           -1.9430     4.5224     3.7902 H       
  57 H57           -3.3260     4.3713     2.6799 H       
  58 H58            0.5360    -1.2624     4.2407 H       
  59 H59            2.9548    -3.9629     0.8886 H       
  60 H60            2.3256    -4.9451     3.0525 H       
  61 H61            1.1208    -3.6005     4.7225 H       
  62 H62            4.0824    -2.6867    -0.3304 H       
  63 H63            2.5290    -3.2151    -1.0203 H       
  64 H64            3.3647    -1.7951    -1.6936 H       
@<TRIPOS>BOND
   1    1    2 1
   2    1    3 2
   3    1   23 1
   4    2   19 1
   5    2    5 1
   6    3    4 1
   7    3    7 1
   8    4    5 2
   9    5    6 1
  10    6   25 ar
  11    6   26 ar
  12    7    8 2
  13    7   10 am
  14    9   10 1
  15    9   11 1
  16    9   15 1
  17    9   32 1
  18   10   33 1
  19   11   12 1
  20   11   13 1
  21   11   14 1
  22   12   34 1
  23   12   35 1
  24   12   36 1
  25   13   37 1
  26   13   38 1
  27   13   39 1
  28   14   40 1
  29   14   41 1
  30   14   42 1
  31   15   16 am
  32   15   17 2
  33   16   18 1
  34   16   43 1
  35   18   44 1
  36   18   45 1
  37   18   46 1
  38   19   20 1
  39   19   47 1
  40   19   48 1
  41   20   21 1
  42   20   49 1
  43   20   50 1
  44   21   22 1
  45   21   51 1
  46   21   52 1
  47   22   23 1
  48   22   24 1
  49   23   53 1
  50   23   54 1
  51   24   55 1
  52   24   56 1
  53   24   57 1
  54   25   29 ar
  55   25   58 1
  56   26   27 ar
  57   26   30 1
  58   27   28 ar
  59   27   59 1
  60   28   29 ar
  61   28   60 1
  62   29   61 1
  63   30   31 1
  64   31   62 1
  65   31   63 1
  66   31   64 1

#	End of record

