#	Name: ASD01903198
#	Creating user name:	WinNT
#	Creation time:	15. 06. 2019 19:54

#	Modifying user name:	WinNT
#	Modification time:	15. 06. 2019 19:54

#	Program:	/corina/corina34_cracker 3.40 0067  02.08.2006

@<TRIPOS>MOLECULE
ASD01903198
  33   35    0    0    0
SMALL
NO_CHARGES


@<TRIPOS>ATOM
   1 S1            -0.0242     1.7576    -0.0301 S.3     
   2 C2             0.0013    -0.0032    -0.0097 C.2     
   3 N3             1.2321    -0.4153    -0.0142 N.2     
   4 C4             2.1769     0.5143    -0.0322 C.2     
   5 C5             1.7377     1.7833    -0.0437 C.2     
   6 N6            -1.1183    -0.8214     0.0087 N.pl3   
   7 C7            -2.3888    -0.2613     0.1290 C.ar    
   8 N8            -2.5138     1.0408     0.3305 N.ar    
   9 C9            -3.6969     1.6132     0.4499 C.ar    
  10 C10           -4.8585     0.8636     0.3674 C.ar    
  11 C11           -4.7676    -0.5099     0.1560 C.ar    
  12 C12           -3.5119    -1.0757     0.0303 C.ar    
  13 C13            3.6233     0.1753    -0.0387 C.2     
  14 C14            4.6407     0.8843    -0.7055 C.2     
  15 N15            5.7763     0.2799    -0.4742 N.2     
  16 N16            5.5308    -0.8302     0.3430 N.pl3   
  17 C17            4.2073    -0.8757     0.6049 C.2     
  18 C18            2.6028     3.0170    -0.0654 C.3     
  19 O19           -6.0736     1.4616     0.4919 O.3     
  20 C20           -6.0824     2.8742     0.7076 C.3     
  21 H21           -1.0171    -1.7835    -0.0621 H       
  22 H22           -3.7600     2.6788     0.6141 H       
  23 H23           -5.6572    -1.1186     0.0879 H       
  24 H24           -3.4045    -2.1377    -0.1344 H       
  25 H25            4.5061     1.7728    -1.3045 H       
  26 H26            6.1968    -1.4561     0.6678 H       
  27 H27            3.7015    -1.6148     1.2085 H       
  28 H28            2.8030     3.3023    -1.0982 H       
  29 H29            2.0869     3.8315     0.4430 H       
  30 H30            3.5443     2.8096     0.4433 H       
  31 H31           -5.5469     3.1045     1.6286 H       
  32 H32           -5.5951     3.3727    -0.1304 H       
  33 H33           -7.1119     3.2229     0.7890 H       
@<TRIPOS>BOND
   1    1    2 1
   2    1    5 1
   3    2    3 2
   4    2    6 1
   5    3    4 1
   6    4    5 2
   7    4   13 1
   8    5   18 1
   9    6    7 1
  10    6   21 1
  11    7    8 ar
  12    7   12 ar
  13    8    9 ar
  14    9   10 ar
  15    9   22 1
  16   10   11 ar
  17   10   19 1
  18   11   12 ar
  19   11   23 1
  20   12   24 1
  21   13   14 1
  22   13   17 2
  23   14   15 2
  24   14   25 1
  25   15   16 1
  26   16   17 1
  27   16   26 1
  28   17   27 1
  29   18   28 1
  30   18   29 1
  31   18   30 1
  32   19   20 1
  33   20   31 1
  34   20   32 1
  35   20   33 1

#	End of record

