#	Name: ASD02030510
#	Creating user name:	WinNT
#	Creation time:	15. 06. 2019 20:15

#	Modifying user name:	WinNT
#	Modification time:	15. 06. 2019 20:15

#	Program:	/corina/corina34_cracker 3.40 0067  02.08.2006

@<TRIPOS>MOLECULE
ASD02030510
  55   58    0    0    0
SMALL
NO_CHARGES


@<TRIPOS>ATOM
   1 N1            -0.2115     1.4217    -0.1415 N.am    
   2 C2            -0.0217    -0.0119     0.1208 C.3     
   3 C3            -0.9184    -0.4178     1.2970 C.3     
   4 N4            -2.2773     0.0825     1.0460 N.am    
   5 C5            -2.4671     1.5160     0.7837 C.3     
   6 C6            -1.5711     1.9228    -0.3870 C.3     
   7 C7             0.8417     2.2626    -0.1513 C.2     
   8 C8             2.1841     1.7703     0.2245 C.2     
   9 N9             3.2630     2.5071     0.3791 N.2     
  10 N10            2.5163     0.4905     0.4745 N.2     
  11 C11            3.7907     0.4705     0.7715 C.2     
  12 N12            4.2442     1.7392     0.7078 N.pl3   
  13 O13            0.6878     3.4257    -0.4691 O.2     
  14 C14           -3.3305    -0.7584     1.0558 C.2     
  15 C15           -4.7013    -0.2270     0.9120 C.ar    
  16 O16           -3.1524    -1.9543     1.1829 O.2     
  17 C17           -1.5439     3.4479    -0.5070 C.3     
  18 C18           -2.1095     1.3118    -1.6822 C.3     
  19 C19            5.5600     2.1524     0.9565 C.ar    
  20 C20            5.8980     3.4949     0.8562 C.ar    
  21 C21            7.1969     3.8993     1.1027 C.ar    
  22 C22            8.1590     2.9668     1.4484 C.ar    
  23 C23            7.8242     1.6288     1.5487 C.ar    
  24 C24            6.5270     1.2200     1.3092 C.ar    
  25 Cl25           7.6213     5.5780     0.9778 Cl      
  26 C26           -5.6731    -0.9686     0.2372 C.ar    
  27 C27           -6.9510    -0.4682     0.1063 C.ar    
  28 C28           -7.2718     0.7692     0.6429 C.ar    
  29 C29           -6.3104     1.5101     1.3137 C.ar    
  30 C30           -5.0315     1.0165     1.4556 C.ar    
  31 C31           -6.6663     2.8548     1.8934 C.3     
  32 F32           -8.5255     1.2552     0.5114 F       
  33 H33           -0.2973    -0.5854    -0.7642 H       
  34 H34            1.0214    -0.2026     0.3732 H       
  35 H35           -0.9387    -1.5041     1.3836 H       
  36 H36           -0.5326     0.0180     2.2186 H       
  37 H37           -3.5102     1.7067     0.5313 H       
  38 H38           -2.1915     2.0895     1.6687 H       
  39 H39            4.3731    -0.4031     1.0249 H       
  40 H40           -1.0475     3.8722     0.3657 H       
  41 H41           -1.0003     3.7318    -1.4081 H       
  42 H42           -2.5646     3.8261    -0.5641 H       
  43 H43           -3.1230     1.6717    -1.8599 H       
  44 H44           -1.4694     1.6032    -2.5150 H       
  45 H45           -2.1198     0.2254    -1.5947 H       
  46 H46            5.1473     4.2227     0.5857 H       
  47 H47            9.1733     3.2844     1.6398 H       
  48 H48            8.5773     0.9032     1.8184 H       
  49 H49            6.2665     0.1749     1.3882 H       
  50 H50           -5.4240    -1.9323    -0.1818 H       
  51 H51           -7.7034    -1.0409    -0.4154 H       
  52 H52           -4.2836     1.5941     1.9785 H       
  53 H53           -7.0202     2.7273     2.9165 H       
  54 H54           -5.7850     3.4962     1.8912 H       
  55 H55           -7.4511     3.3136     1.2920 H       
@<TRIPOS>BOND
   1    1    2 1
   2    1    7 am
   3    1    6 1
   4    2    3 1
   5    2   33 1
   6    2   34 1
   7    3    4 1
   8    3   35 1
   9    3   36 1
  10    4    5 1
  11    4   14 am
  12    5    6 1
  13    5   37 1
  14    5   38 1
  15    6   17 1
  16    6   18 1
  17    7    8 1
  18    7   13 2
  19    8    9 2
  20    8   10 1
  21    9   12 1
  22   10   11 2
  23   11   12 1
  24   11   39 1
  25   12   19 1
  26   14   15 1
  27   14   16 2
  28   15   26 ar
  29   15   30 ar
  30   17   40 1
  31   17   41 1
  32   17   42 1
  33   18   43 1
  34   18   44 1
  35   18   45 1
  36   19   20 ar
  37   19   24 ar
  38   20   21 ar
  39   20   46 1
  40   21   22 ar
  41   21   25 1
  42   22   23 ar
  43   22   47 1
  44   23   24 ar
  45   23   48 1
  46   24   49 1
  47   26   27 ar
  48   26   50 1
  49   27   28 ar
  50   27   51 1
  51   28   29 ar
  52   28   32 1
  53   29   30 ar
  54   29   31 1
  55   30   52 1
  56   31   53 1
  57   31   54 1
  58   31   55 1

#	End of record

