#	Name: ASD02030606
#	Creating user name:	WinNT
#	Creation time:	15. 06. 2019 20:15

#	Modifying user name:	WinNT
#	Modification time:	15. 06. 2019 20:15

#	Program:	/corina/corina34_cracker 3.40 0067  02.08.2006

@<TRIPOS>MOLECULE
ASD02030606
  68   72    0    0    0
SMALL
NO_CHARGES


@<TRIPOS>ATOM
   1 C1            -0.2562     1.5035    -0.0054 C.ar    
   2 C2            -0.1569     0.1285    -0.0203 C.ar    
   3 C3             1.0940    -0.4702     0.0299 C.ar    
   4 C4             2.2294     0.3182     0.1001 C.ar    
   5 C5             2.1267     1.7031     0.1215 C.ar    
   6 C6             0.8841     2.2936     0.0596 C.ar    
   7 C7             0.7028     3.7909     0.0450 C.3     
   8 C8             3.4031     2.4954     0.2278 C.3     
   9 C9             3.1924     3.9326    -0.2455 C.3     
  10 N10            1.9689     4.4453     0.3914 N.am    
  11 C11            0.2644     4.2371    -1.3512 C.3     
  12 O12            1.2052     3.7671    -2.3188 O.3     
  13 C13            0.9613     4.0797    -3.6195 C.ar    
  14 C14            2.0106     5.4756     1.2592 C.2     
  15 O15            3.0801     5.9510     1.5873 O.2     
  16 C16            0.7554     6.0276     1.8122 C.ar    
  17 C17            0.4646     4.7157    -6.2676 C.ar    
  18 C18           -0.4050     5.1456    -5.2763 C.ar    
  19 C19           -0.1573     4.8280    -3.9550 C.ar    
  20 C20            1.8342     3.6551    -4.6102 C.ar    
  21 C21            1.5865     3.9726    -5.9315 C.ar    
  22 C22            0.7164     6.5011     3.1243 C.ar    
  23 C23           -0.3941     6.0826     1.0221 C.ar    
  24 C24           -1.5622     6.5991     1.5433 C.ar    
  25 C25           -1.5966     7.0628     2.8464 C.ar    
  26 C26           -0.4592     7.0158     3.6343 C.ar    
  27 Cl27          -0.5107     7.6056     5.2663 Cl      
  28 O28            1.2036    -1.8246     0.0105 O.3     
  29 O29            0.2207     5.0283    -7.5683 O.3     
  30 C30            1.1580     4.5527    -8.5365 C.3     
  31 C31            0.7201     4.9998    -9.9327 C.3     
  32 C32           -0.0125    -2.5744     0.0413 C.3     
  33 C33            0.2094    -3.9643    -0.5805 C.3     
  34 C34           -0.1024    -4.9958     0.5235 C.3     
  35 C35           -1.0442    -4.2407     1.4939 C.3     
  36 C36           -0.4513    -2.8098     1.5014 C.3     
  37 H37           -1.2291     1.9703    -0.0492 H       
  38 H38           -1.0480    -0.4795    -0.0704 H       
  39 H39            3.2031    -0.1474     0.1390 H       
  40 H40           -0.0606     4.0709     0.7709 H       
  41 H41            3.7337     2.5048     1.2664 H       
  42 H42            4.1698     2.0242    -0.3873 H       
  43 H43            4.0451     4.5457     0.0464 H       
  44 H44            3.0782     3.9509    -1.3293 H       
  45 H45           -0.7203     3.8249    -1.5719 H       
  46 H46            0.2191     5.3255    -1.3873 H       
  47 H47           -1.2786     5.7241    -5.5379 H       
  48 H48           -0.8348     5.1621    -3.1831 H       
  49 H49            2.7078     3.0765    -4.3485 H       
  50 H50            2.2636     3.6379    -6.7034 H       
  51 H51            1.6033     6.4647     3.7395 H       
  52 H52           -0.3688     5.7218     0.0044 H       
  53 H53           -2.4519     6.6419     0.9325 H       
  54 H54           -2.5136     7.4668     3.2493 H       
  55 H55            2.1450     4.9601    -8.3175 H       
  56 H56            1.1979     3.4641    -8.4995 H       
  57 H57            1.4350     4.6370   -10.6712 H       
  58 H58           -0.2669     4.5924   -10.1518 H       
  59 H59            0.6803     6.0884    -9.9698 H       
  60 H60           -0.7928    -2.0422    -0.5027 H       
  61 H61           -0.4639    -4.1070    -1.4257 H       
  62 H62            1.2446    -4.0669    -0.9057 H       
  63 H63           -0.6066    -5.8653     0.1018 H       
  64 H64            0.8123    -5.2951     1.0352 H       
  65 H65           -2.0657    -4.2336     1.1135 H       
  66 H66           -1.0051    -4.6803     2.4905 H       
  67 H67            0.4070    -2.7560     2.1711 H       
  68 H68           -1.2102    -2.0839     1.7934 H       
@<TRIPOS>BOND
   1    1    2 ar
   2    1    6 ar
   3    1   37 1
   4    2    3 ar
   5    2   38 1
   6    3    4 ar
   7    3   28 1
   8    4    5 ar
   9    4   39 1
  10    5    6 ar
  11    5    8 1
  12    6    7 1
  13    7   10 1
  14    7   11 1
  15    7   40 1
  16    8    9 1
  17    8   41 1
  18    8   42 1
  19    9   10 1
  20    9   43 1
  21    9   44 1
  22   10   14 am
  23   11   12 1
  24   11   45 1
  25   11   46 1
  26   12   13 1
  27   13   20 ar
  28   13   19 ar
  29   14   15 2
  30   14   16 1
  31   16   23 ar
  32   16   22 ar
  33   17   18 ar
  34   17   21 ar
  35   17   29 1
  36   18   19 ar
  37   18   47 1
  38   19   48 1
  39   20   21 ar
  40   20   49 1
  41   21   50 1
  42   22   26 ar
  43   22   51 1
  44   23   24 ar
  45   23   52 1
  46   24   25 ar
  47   24   53 1
  48   25   26 ar
  49   25   54 1
  50   26   27 1
  51   28   32 1
  52   29   30 1
  53   30   31 1
  54   30   55 1
  55   30   56 1
  56   31   57 1
  57   31   58 1
  58   31   59 1
  59   32   33 1
  60   32   36 1
  61   32   60 1
  62   33   34 1
  63   33   61 1
  64   33   62 1
  65   34   35 1
  66   34   63 1
  67   34   64 1
  68   35   36 1
  69   35   65 1
  70   35   66 1
  71   36   67 1
  72   36   68 1

#	End of record

