#	Name: ASD08150020
#	Creating user name:	WinNT
#	Creation time:	15. 06. 2019 21:15

#	Modifying user name:	WinNT
#	Modification time:	15. 06. 2019 21:15

#	Program:	/corina/corina34_cracker 3.40 0067  02.08.2006

@<TRIPOS>MOLECULE
ASD08150020
  42   46    0    0    0
SMALL
NO_CHARGES


@<TRIPOS>ATOM
   1 N1            -0.0155     1.2940     0.0092 N.2     
   2 C2             0.0021    -0.0041     0.0020 C.2     
   3 N3             1.1492    -0.7359    -0.0129 N.am    
   4 C4             2.3564    -0.1242    -0.0206 C.2     
   5 C5             2.3710     1.3448    -0.0129 C.ar    
   6 C6             3.5625     2.0691    -0.0195 C.ar    
   7 C7             3.5203     3.4468    -0.0113 C.ar    
   8 C8             2.2984     4.1168     0.0039 C.ar    
   9 C9             1.1105     3.4164     0.0111 C.ar    
  10 C10            1.1303     2.0210     0.0021 C.ar    
  11 O11            3.3905    -0.7666    -0.0331 O.2     
  12 C12           -1.3144    -0.7375     0.0112 C.3     
  13 S13           -2.6718     0.4596     0.0311 S.3     
  14 N14           -5.9166     1.0926     0.0666 N.2     
  15 C15           -7.2139     0.9879     0.0790 C.2     
  16 N16           -7.5748    -0.3267     0.0761 N.pl3   
  17 C17           -6.4216    -1.0697     0.0610 C.ar    
  18 N18           -6.1425    -2.3693     0.0515 N.ar    
  19 C19           -4.8943    -2.7877     0.0367 C.ar    
  20 N20           -3.8682    -1.9570     0.0300 N.ar    
  21 C21           -4.0490    -0.6395     0.0388 C.ar    
  22 C22           -5.3645    -0.1442     0.0550 C.ar    
  23 F23            2.2773     5.4676     0.0122 F       
  24 F24            4.6720     4.1530    -0.0176 F       
  25 C25            1.0800    -2.1352    -0.0197 C.ar    
  26 C26            1.0570    -2.8373     1.1796 C.ar    
  27 C27            0.9887    -4.2175     1.1688 C.ar    
  28 C28            0.9437    -4.8994    -0.0336 C.ar    
  29 C29            0.9669    -4.2033    -1.2279 C.ar    
  30 C30            1.0284    -2.8232    -1.2242 C.ar    
  31 Cl31           1.1146    -1.9817     2.6890 Cl      
  32 H32            4.5118     1.5543    -0.0305 H       
  33 H33            0.1690     3.9454     0.0232 H       
  34 H34           -1.3906    -1.3584    -0.8815 H       
  35 H35           -1.3729    -1.3679     0.8984 H       
  36 H36           -7.9026     1.8197     0.0899 H       
  37 H37           -8.4808    -0.6731     0.0834 H       
  38 H38           -4.7025    -3.8505     0.0297 H       
  39 H39            0.9708    -4.7641     2.1000 H       
  40 H40            0.8907    -5.9781    -0.0396 H       
  41 H41            0.9319    -4.7390    -2.1650 H       
  42 H42            1.0412    -2.2802    -2.1577 H       
@<TRIPOS>BOND
   1    1    2 2
   2    1   10 1
   3    2    3 1
   4    2   12 1
   5    3    4 am
   6    3   25 1
   7    4    5 1
   8    4   11 2
   9    5    6 ar
  10    5   10 ar
  11    6    7 ar
  12    6   32 1
  13    7    8 ar
  14    7   24 1
  15    8    9 ar
  16    8   23 1
  17    9   10 ar
  18    9   33 1
  19   12   13 1
  20   12   34 1
  21   12   35 1
  22   13   21 1
  23   14   15 2
  24   14   22 1
  25   15   16 1
  26   15   36 1
  27   16   17 1
  28   16   37 1
  29   17   18 ar
  30   17   22 ar
  31   18   19 ar
  32   19   20 ar
  33   19   38 1
  34   20   21 ar
  35   21   22 ar
  36   25   26 ar
  37   25   30 ar
  38   26   27 ar
  39   26   31 1
  40   27   28 ar
  41   27   39 1
  42   28   29 ar
  43   28   40 1
  44   29   30 ar
  45   29   41 1
  46   30   42 1

#	End of record

