#	Name: ASD05730088
#	Creating user name:	WinNT
#	Creation time:	15. 06. 2019 21:02

#	Modifying user name:	WinNT
#	Modification time:	15. 06. 2019 21:02

#	Program:	/corina/corina34_cracker 3.40 0067  02.08.2006

@<TRIPOS>MOLECULE
ASD05730088
  70   75    0    0    0
SMALL
NO_CHARGES


@<TRIPOS>ATOM
   1 C1             0.0268     1.4738    -0.0164 C.2     
   2 C2             0.0351    -0.0037    -0.0174 C.ar    
   3 C3            -0.0563    -0.7045     1.1866 C.ar    
   4 C4            -0.0488    -2.0825     1.1824 C.ar    
   5 C5             0.0499    -2.7749    -0.0193 C.ar    
   6 C6             0.1416    -2.0798    -1.2200 C.ar    
   7 C7             0.1287    -0.7018    -1.2228 C.ar    
   8 N8             0.0573    -4.1715    -0.0203 N.pl3   
   9 C9            -0.5418    -4.8648    -1.0544 C.ar    
  10 N10           -0.4242    -6.1834    -1.0907 N.ar    
  11 C11           -0.9866    -6.8843    -2.0687 C.ar    
  12 C12           -1.7106    -6.1960    -3.0664 C.ar    
  13 C13           -1.8061    -4.7987    -2.9830 C.ar    
  14 N14           -1.2194    -4.1847    -1.9727 N.ar    
  15 N15           -0.8694    -8.2505    -2.1145 N.am    
  16 C16           -1.4414    -8.9562    -3.1090 C.2     
  17 C17           -2.1990    -8.2733    -4.1597 C.2     
  18 C18           -2.3225    -6.9102    -4.1216 C.2     
  19 C19           -0.1140    -8.9488    -1.0714 C.3     
  20 C20           -1.0341    -9.9347    -0.3489 C.3     
  21 O21           -1.3276   -10.1688    -3.1346 O.2     
  22 C22           -2.8276    -9.0505    -5.2534 C.ar    
  23 C23           -3.8616    -9.9430    -4.9732 C.ar    
  24 C24           -1.1280     2.1888    -0.6607 C.3     
  25 C25           -2.3912    -8.8881    -6.5681 C.ar    
  26 C26           -2.9807    -9.6142    -7.5824 C.ar    
  27 C27           -4.0029   -10.5022    -7.2973 C.ar    
  28 C28           -4.4435   -10.6637    -5.9962 C.ar    
  29 S29           -2.4313    -9.4100    -9.2440 S.o2    
  30 C30           -1.1113   -10.6390    -9.4385 C.3     
  31 C31           -0.3358   -10.6400   -10.7575 C.3     
  32 C32            0.3300   -10.1273    -9.4789 C.3     
  33 O33           -3.5602    -9.7617   -10.0321 O.2     
  34 O34           -1.8961    -8.0940    -9.2769 O.2     
  35 C35            1.0502    -9.7104    -1.7081 C.3     
  36 C36            1.0274     2.1100     0.5529 C.2     
  37 C37            1.1152     3.6077     0.6170 C.3     
  38 N38            0.1983     4.2128    -0.3573 N.3     
  39 C39           -1.1536     3.6482    -0.1994 C.3     
  40 H40           -0.1326    -0.1672     2.1204 H       
  41 H41           -0.1191    -2.6252     2.1135 H       
  42 H42            0.2188    -2.6204    -2.1517 H       
  43 H43            0.2000    -0.1625    -2.1557 H       
  44 H44            0.4831    -4.6548     0.7050 H       
  45 H45           -2.3512    -4.2378    -3.7277 H       
  46 H46           -2.8772    -6.3884    -4.8874 H       
  47 H47            0.2742    -8.2232    -0.3565 H       
  48 H48           -1.4222   -10.6603    -1.0638 H       
  49 H49           -0.4721   -10.4543     0.4272 H       
  50 H50           -1.8635    -9.3921     0.1047 H       
  51 H51           -4.2062   -10.0702    -3.9576 H       
  52 H52           -1.0176     2.1529    -1.7445 H       
  53 H53           -2.0607     1.7019    -0.3756 H       
  54 H54           -1.5937    -8.1950    -6.7918 H       
  55 H55           -4.4613   -11.0685    -8.0946 H       
  56 H56           -5.2414   -11.3586    -5.7797 H       
  57 H57           -1.2908   -11.6015    -8.9595 H       
  58 H58           -0.0048   -11.6031   -11.1459 H       
  59 H59           -0.6188    -9.9022   -11.5082 H       
  60 H60            0.4851    -9.0521    -9.3886 H       
  61 H61            1.0991   -10.7531    -9.0262 H       
  62 H62            1.7057    -9.0080    -2.2229 H       
  63 H63            1.6123   -10.2300    -0.9321 H       
  64 H64            0.6621   -10.4359    -2.4230 H       
  65 H65            1.8226     1.5281     0.9951 H       
  66 H66            0.8488     3.9424     1.6195 H       
  67 H67            2.1357     3.9194     0.3942 H       
  68 H68            0.1830     5.2173    -0.2640 H       
  69 H69           -1.8591     4.2109    -0.8107 H       
  70 H70           -1.4513     3.6982     0.8479 H       
@<TRIPOS>BOND
   1    1    2 1
   2    1   36 2
   3    1   24 1
   4    2    3 ar
   5    2    7 ar
   6    3    4 ar
   7    3   40 1
   8    4    5 ar
   9    4   41 1
  10    5    6 ar
  11    5    8 1
  12    6    7 ar
  13    6   42 1
  14    7   43 1
  15    8    9 1
  16    8   44 1
  17    9   10 ar
  18    9   14 ar
  19   10   11 ar
  20   11   12 ar
  21   11   15 1
  22   12   13 ar
  23   12   18 1
  24   13   14 ar
  25   13   45 1
  26   15   16 am
  27   15   19 1
  28   16   17 1
  29   16   21 2
  30   17   18 2
  31   17   22 1
  32   18   46 1
  33   19   20 1
  34   19   35 1
  35   19   47 1
  36   20   48 1
  37   20   49 1
  38   20   50 1
  39   22   25 ar
  40   22   23 ar
  41   23   28 ar
  42   23   51 1
  43   24   39 1
  44   24   52 1
  45   24   53 1
  46   25   26 ar
  47   25   54 1
  48   26   27 ar
  49   26   29 1
  50   27   28 ar
  51   27   55 1
  52   28   56 1
  53   29   30 1
  54   29   33 2
  55   29   34 2
  56   30   31 1
  57   30   32 1
  58   30   57 1
  59   31   32 1
  60   31   58 1
  61   31   59 1
  62   32   60 1
  63   32   61 1
  64   35   62 1
  65   35   63 1
  66   35   64 1
  67   36   37 1
  68   36   65 1
  69   37   38 1
  70   37   66 1
  71   37   67 1
  72   38   39 1
  73   38   68 1
  74   39   69 1
  75   39   70 1

#	End of record

