#	Name: ASD04598007
#	Creating user name:	WinNT
#	Creation time:	15. 06. 2019 20:52

#	Modifying user name:	WinNT
#	Modification time:	15. 06. 2019 20:52

#	Program:	/corina/corina34_cracker 3.40 0067  02.08.2006

@<TRIPOS>MOLECULE
ASD04598007
  28   29    0    0    0
SMALL
NO_CHARGES


@<TRIPOS>ATOM
   1 C1            -0.0168     1.3863     0.0097 C.ar    
   2 C2             0.0021    -0.0041     0.0020 C.ar    
   3 C3            -1.1923    -0.7134     0.0206 C.ar    
   4 C4            -2.4063    -0.0092     0.0553 C.ar    
   5 C5            -2.4052     1.3882     0.0375 C.ar    
   6 C6            -1.2272     2.0752     0.0307 C.ar    
   7 C7            -3.6836    -0.7263     0.1414 C.2     
   8 C8            -4.4939    -0.5639     1.4119 C.3     
   9 C9            -5.2870     0.7177     1.3643 C.3     
  10 C10           -4.4328     1.9769     1.3400 C.3     
  11 C11           -3.7219     2.1425     0.0014 C.3     
  12 O12           -4.0767    -1.4230    -0.7709 O.2     
  13 O13           -5.3890    -1.6696     1.5471 O.3     
  14 O14            1.1522     2.0768     0.0022 O.3     
  15 O15            1.1892    -0.6692    -0.0241 O.3     
  16 O16           -1.1856    -2.0704     0.0050 O.3     
  17 H17           -1.2328     3.1552     0.0333 H       
  18 H18           -3.8208    -0.5403     2.2690 H       
  19 H19           -5.9124     0.7056     0.4716 H       
  20 H20           -5.9368     0.7562     2.2385 H       
  21 H21           -5.0704     2.8435     1.5145 H       
  22 H22           -3.6883     1.9179     2.1340 H       
  23 H23           -3.5307     3.2000    -0.1808 H       
  24 H24           -4.3488     1.7426    -0.7956 H       
  25 H25           -4.9480    -2.5288     1.5964 H       
  26 H26            1.4824     2.2816    -0.8833 H       
  27 H27            1.5491    -0.8661     0.8516 H       
  28 H28           -1.1639    -2.4738     0.8835 H       
@<TRIPOS>BOND
   1    1    2 ar
   2    1   14 1
   3    1    6 ar
   4    2    3 ar
   5    2   15 1
   6    3    4 ar
   7    3   16 1
   8    4    5 ar
   9    4    7 1
  10    5    6 ar
  11    5   11 1
  12    6   17 1
  13    7    8 1
  14    7   12 2
  15    8    9 1
  16    8   13 1
  17    8   18 1
  18    9   10 1
  19    9   19 1
  20    9   20 1
  21   10   11 1
  22   10   21 1
  23   10   22 1
  24   11   23 1
  25   11   24 1
  26   13   25 1
  27   14   26 1
  28   15   27 1
  29   16   28 1

#	End of record

