#	Name: ASD04880030
#	Creating user name:	WinNT
#	Creation time:	15. 06. 2019 20:52

#	Modifying user name:	WinNT
#	Modification time:	15. 06. 2019 20:52

#	Program:	/corina/corina34_cracker 3.40 0067  02.08.2006

@<TRIPOS>MOLECULE
ASD04880030
  71   75    0    0    0
SMALL
NO_CHARGES


@<TRIPOS>ATOM
   1 C1             0.1034     1.1572     0.0597 C.ar    
   2 C2             0.0425    -0.2312     0.0742 C.ar    
   3 C3            -1.1765    -0.8696     0.1402 C.ar    
   4 C4            -2.3560    -0.1223     0.1927 C.ar    
   5 C5            -2.2975     1.2745     0.1782 C.ar    
   6 C6            -1.0726     1.9110     0.1174 C.ar    
   7 N7            -1.0096     3.3104     0.1031 N.am    
   8 C8            -1.9748     4.0222    -0.5120 C.2     
   9 C9            -1.9773     5.4857    -0.4210 C.2     
  10 O10           -2.8443     3.4502    -1.1430 O.2     
  11 N11            1.3377     1.7983    -0.0066 N.3     
  12 C12            1.4885     2.5205    -1.2775 C.3     
  13 C13            2.4381     0.8437     0.1871 C.3     
  14 C14            3.7700     1.5976     0.1868 C.3     
  15 N15            3.9208     2.3198    -1.0842 N.3     
  16 C16            2.8204     3.2744    -1.2779 C.3     
  17 C17            5.1589     2.9629    -1.1507 C.ar    
  18 C18            6.0553     2.6442    -2.1625 C.ar    
  19 C19            5.4942     3.9269    -0.2081 C.ar    
  20 C20            6.7191     4.5607    -0.2767 C.ar    
  21 C21            7.6115     4.2372    -1.2825 C.ar    
  22 C22            7.2788     3.2821    -2.2253 C.ar    
  23 C23            5.6936     1.6033    -3.1905 C.3     
  24 C24           -3.6613    -0.8062     0.2628 C.2     
  25 C25           -2.8913     6.3236    -0.9931 C.2     
  26 C26           -2.5108     7.6305    -0.6501 C.2     
  27 C27           -1.3954     7.5342     0.1067 C.2     
  28 O28           -1.0804     6.2400     0.2474 O.3     
  29 O29           -4.6872    -0.1551     0.3085 O.2     
  30 N30           -3.7167    -2.1528     0.2763 N.am    
  31 C31           -5.0129    -2.8320     0.3459 C.3     
  32 C32           -4.7956    -4.3465     0.3472 C.3     
  33 C33           -6.1493    -5.0558     0.4200 C.3     
  34 C34           -6.9593    -4.8054    -0.8669 C.3     
  35 O35           -7.1475    -6.0782    -1.5078 O.3     
  36 C36           -7.0970    -7.0831    -0.4723 C.3     
  37 C37           -5.9554    -6.5913     0.4535 C.3     
  38 H38            0.9528    -0.8109     0.0334 H       
  39 H39           -1.2206    -1.9487     0.1510 H       
  40 H40           -3.2075     1.8547     0.2184 H       
  41 H41           -0.2714     3.7672     0.5359 H       
  42 H42            1.4727     1.8097    -2.1038 H       
  43 H43            0.6690     3.2300    -1.3921 H       
  44 H44            2.3109     0.3307     1.1404 H       
  45 H45            2.4331     0.1139    -0.6224 H       
  46 H46            3.7858     2.3084     1.0130 H       
  47 H47            4.5895     0.8882     0.3013 H       
  48 H48            2.9476     3.7875    -2.2312 H       
  49 H49            2.8254     4.0043    -0.4683 H       
  50 H50            4.7975     4.1805     0.5773 H       
  51 H51            6.9804     5.3102     0.4558 H       
  52 H52            8.5686     4.7349    -1.3343 H       
  53 H53            7.9780     3.0317    -3.0095 H       
  54 H54            5.1948     2.0826    -4.0330 H       
  55 H55            6.5992     1.1068    -3.5391 H       
  56 H56            5.0251     0.8677    -2.7431 H       
  57 H57           -3.7419     6.0365    -1.5935 H       
  58 H58           -3.0146     8.5416    -0.9370 H       
  59 H59           -0.8501     8.3640     0.5316 H       
  60 H60           -2.8983    -2.6722     0.2399 H       
  61 H61           -5.5284    -2.5381     1.2602 H       
  62 H62           -5.6165    -2.5522    -0.5175 H       
  63 H63           -4.2801    -4.6404    -0.5671 H       
  64 H64           -4.1920    -4.6262     1.2107 H       
  65 H65           -6.7082    -4.7206     1.2938 H       
  66 H66           -7.9266    -4.3696    -0.6171 H       
  67 H67           -6.4082    -4.1358    -1.5273 H       
  68 H68           -8.0414    -7.1225     0.0707 H       
  69 H69           -6.8552    -8.0582    -0.8951 H       
  70 H70           -4.9812    -6.8692     0.0511 H       
  71 H71           -6.0813    -6.9773     1.4651 H       
@<TRIPOS>BOND
   1    1    2 ar
   2    1   11 1
   3    1    6 ar
   4    2    3 ar
   5    2   38 1
   6    3    4 ar
   7    3   39 1
   8    4    5 ar
   9    4   24 1
  10    5    6 ar
  11    5   40 1
  12    6    7 1
  13    7    8 am
  14    7   41 1
  15    8    9 1
  16    8   10 2
  17    9   25 2
  18    9   28 1
  19   11   12 1
  20   11   13 1
  21   12   16 1
  22   12   42 1
  23   12   43 1
  24   13   14 1
  25   13   44 1
  26   13   45 1
  27   14   15 1
  28   14   46 1
  29   14   47 1
  30   15   16 1
  31   15   17 1
  32   16   48 1
  33   16   49 1
  34   17   18 ar
  35   17   19 ar
  36   18   23 1
  37   18   22 ar
  38   19   20 ar
  39   19   50 1
  40   20   21 ar
  41   20   51 1
  42   21   22 ar
  43   21   52 1
  44   22   53 1
  45   23   54 1
  46   23   55 1
  47   23   56 1
  48   24   29 2
  49   24   30 am
  50   25   26 1
  51   25   57 1
  52   26   27 2
  53   26   58 1
  54   27   28 1
  55   27   59 1
  56   30   31 1
  57   30   60 1
  58   31   32 1
  59   31   61 1
  60   31   62 1
  61   32   33 1
  62   32   63 1
  63   32   64 1
  64   33   34 1
  65   33   37 1
  66   33   65 1
  67   34   35 1
  68   34   66 1
  69   34   67 1
  70   35   36 1
  71   36   37 1
  72   36   68 1
  73   36   69 1
  74   37   70 1
  75   37   71 1

#	End of record

