#	Name: ASD01813831
#	Creating user name:	WinNT
#	Creation time:	15. 06. 2019 19:31

#	Modifying user name:	WinNT
#	Modification time:	15. 06. 2019 19:31

#	Program:	/corina/corina34_cracker 3.40 0067  02.08.2006

@<TRIPOS>MOLECULE
ASD01813831
  47   50    0    0    0
SMALL
NO_CHARGES


@<TRIPOS>ATOM
   1 C1            -0.6557     0.4125     0.2957 C.2     
   2 C2            -0.3709    -0.9596     0.3009 C.2     
   3 C3             0.9250    -1.3767     0.2120 C.2     
   4 C4             1.9523    -0.4232     0.1168 C.2     
   5 N5             1.6454     0.9104     0.1144 N.am    
   6 C6             0.3466     1.3154     0.2033 C.2     
   7 C7             3.2849    -0.8492     0.0254 C.2     
   8 C8             4.2904     0.0688    -0.0671 C.2     
   9 C9             3.9711     1.4393    -0.0698 C.2     
  10 C10            2.6215     1.8362     0.0238 C.2     
  11 O11            2.3356     3.0217     0.0218 O.2     
  12 C12            5.0316     2.4447    -0.1676 C.2     
  13 O13            4.7189     3.7569    -0.1696 O.3     
  14 O14            6.1943     2.0964    -0.2469 O.2     
  15 C15            3.6070    -2.3214     0.0298 C.3     
  16 N16            3.7264    -2.8007    -1.3536 N.3     
  17 C17            4.2694    -4.1657    -1.3931 C.3     
  18 C18            4.3035    -4.6566    -2.8423 C.3     
  19 N19            5.1256    -3.7424    -3.6473 N.3     
  20 C20            4.5826    -2.3774    -3.6078 C.3     
  21 C21            4.5485    -1.8864    -2.1586 C.3     
  22 C22            5.2387    -4.1961    -4.9570 C.ar    
  23 C23            6.4366    -4.0258    -5.6452 C.ar    
  24 C24            6.5348    -4.4828    -6.9481 C.ar    
  25 C25            5.4284    -5.0964    -7.5200 C.ar    
  26 C26            4.2716    -5.2319    -6.7788 C.ar    
  27 N27            4.2077    -4.7912    -5.5366 N.ar    
  28 Cl28           7.7885    -3.2505    -4.8802 Cl      
  29 H29           -1.6796     0.7499     0.3613 H       
  30 H30           -1.1709    -1.6812     0.3750 H       
  31 H31            1.1592    -2.4310     0.2151 H       
  32 H32            0.1155     2.3704     0.2006 H       
  33 H33            5.3190    -0.2527    -0.1370 H       
  34 H34            5.4528     4.3830    -0.2360 H       
  35 H35            4.5485    -2.4857     0.5538 H       
  36 H36            2.8098    -2.8662     0.5356 H       
  37 H37            5.2801    -4.1669    -0.9848 H       
  38 H38            3.6366    -4.8261    -0.8002 H       
  39 H39            4.7329    -5.6578    -2.8771 H       
  40 H40            3.2897    -4.6812    -3.2418 H       
  41 H41            5.2154    -1.7170    -4.2007 H       
  42 H42            3.5719    -2.3761    -4.0161 H       
  43 H43            4.1191    -0.8852    -2.1238 H       
  44 H44            5.5623    -1.8618    -1.7591 H       
  45 H45            7.4512    -4.3645    -7.5072 H       
  46 H46            5.4721    -5.4637    -8.5347 H       
  47 H47            3.4087    -5.7082    -7.2202 H       
@<TRIPOS>BOND
   1    1    2 1
   2    1    6 2
   3    1   29 1
   4    2    3 2
   5    2   30 1
   6    3    4 1
   7    3   31 1
   8    4    5 1
   9    4    7 2
  10    5    6 1
  11    5   10 am
  12    6   32 1
  13    7    8 1
  14    7   15 1
  15    8    9 2
  16    8   33 1
  17    9   10 1
  18    9   12 1
  19   10   11 2
  20   12   13 1
  21   12   14 2
  22   13   34 1
  23   15   16 1
  24   15   35 1
  25   15   36 1
  26   16   17 1
  27   16   21 1
  28   17   18 1
  29   17   37 1
  30   17   38 1
  31   18   19 1
  32   18   39 1
  33   18   40 1
  34   19   20 1
  35   19   22 1
  36   20   21 1
  37   20   41 1
  38   20   42 1
  39   21   43 1
  40   21   44 1
  41   22   23 ar
  42   22   27 ar
  43   23   24 ar
  44   23   28 1
  45   24   25 ar
  46   24   45 1
  47   25   26 ar
  48   25   46 1
  49   26   27 ar
  50   26   47 1

#	End of record

