#	Name: ASD00990122
#	Creating user name:	WinNT
#	Creation time:	15. 06. 2019 18:54

#	Modifying user name:	WinNT
#	Modification time:	15. 06. 2019 18:54

#	Program:	/corina/corina34_cracker 3.40 0067  02.08.2006

@<TRIPOS>MOLECULE
ASD00990122
  40   43    0    0    0
SMALL
NO_CHARGES


@<TRIPOS>ATOM
   1 C1            -0.0167     1.3771     0.0096 C.ar    
   2 C2             0.0021    -0.0041     0.0020 C.ar    
   3 C3             1.2101    -0.6780    -0.0131 C.ar    
   4 C4             2.4270     0.0046    -0.0211 C.ar    
   5 C5             2.3843     1.4073    -0.0131 C.ar    
   6 C6             1.1807     2.0741     0.0019 C.ar    
   7 N7             3.5427    -0.8130    -0.0361 N.am    
   8 C8             4.8903    -0.2386    -0.0454 C.3     
   9 C9             5.3657    -0.0497     1.3721 C.2     
  10 N10            6.5869     0.4685     1.6099 N.am    
  11 C11            7.0490     0.6522     2.9880 C.3     
  12 O12            4.6493    -0.3639     2.2989 O.2     
  13 C13            7.4522     0.8482     0.4905 C.3     
  14 C14            7.7645    -0.5918     3.4479 C.2     
  15 O15            7.1768    -1.6345     4.0558 O.3     
  16 C16            8.1266    -2.5587     4.3191 C.ar    
  17 C17            9.3337    -2.0279     3.8396 C.ar    
  18 N18            9.0371    -0.8109     3.3078 N.2     
  19 C19            8.1126    -3.8089     4.9186 C.ar    
  20 C20            9.2857    -4.5256     5.0410 C.ar    
  21 C21           10.4819    -4.0032     4.5681 C.ar    
  22 C22           10.5127    -2.7638     3.9696 C.ar    
  23 S23            1.6142    -2.4002    -0.0262 S.3     
  24 C24            3.3660    -2.1379    -0.0416 C.2     
  25 O25            4.2336    -2.9916    -0.0544 O.2     
  26 Cl26           9.2655    -6.0906     5.7920 Cl      
  27 Cl27           1.1623     3.8100     0.0114 Cl      
  28 H28           -0.9565     1.9090     0.0170 H       
  29 H29           -0.9255    -0.5573     0.0083 H       
  30 H30            3.3063     1.9697    -0.0186 H       
  31 H31            5.5687    -0.9119    -0.5694 H       
  32 H32            4.8708     0.7255    -0.5536 H       
  33 H33            7.7312     1.5011     3.0323 H       
  34 H34            6.1930     0.8397     3.6363 H       
  35 H35            7.2639     1.8877     0.2219 H       
  36 H36            8.4960     0.7316     0.7823 H       
  37 H37            7.2407     0.2077    -0.3658 H       
  38 H38            7.1856    -4.2209     5.2894 H       
  39 H39           11.3937    -4.5730     4.6697 H       
  40 H40           11.4457    -2.3620     3.6030 H       
@<TRIPOS>BOND
   1    1    2 ar
   2    1    6 ar
   3    1   28 1
   4    2    3 ar
   5    2   29 1
   6    3    4 ar
   7    3   23 1
   8    4    5 ar
   9    4    7 1
  10    5    6 ar
  11    5   30 1
  12    6   27 1
  13    7    8 1
  14    7   24 am
  15    8    9 1
  16    8   31 1
  17    8   32 1
  18    9   10 am
  19    9   12 2
  20   10   11 1
  21   10   13 1
  22   11   14 1
  23   11   33 1
  24   11   34 1
  25   13   35 1
  26   13   36 1
  27   13   37 1
  28   14   15 1
  29   14   18 2
  30   15   16 1
  31   16   17 ar
  32   16   19 ar
  33   17   18 1
  34   17   22 ar
  35   19   20 ar
  36   19   38 1
  37   20   21 ar
  38   20   26 1
  39   21   22 ar
  40   21   39 1
  41   22   40 1
  42   23   24 1
  43   24   25 2

#	End of record

