#	Name: ASD01813238
#	Creating user name:	WinNT
#	Creation time:	15. 06. 2019 19:30

#	Modifying user name:	WinNT
#	Modification time:	15. 06. 2019 19:30

#	Program:	/corina/corina34_cracker 3.40 0067  02.08.2006

@<TRIPOS>MOLECULE
ASD01813238
  58   62    0    0    0
SMALL
NO_CHARGES


@<TRIPOS>ATOM
   1 C1            -0.0169     1.3972     0.0097 C.2     
   2 C2             0.0021    -0.0041     0.0020 C.2     
   3 C3             1.1986    -0.6593    -0.0129 C.2     
   4 C4             2.3918     0.0821    -0.0204 C.2     
   5 N5             2.3437     1.4497    -0.0122 N.am    
   6 C6             1.1421     2.0937     0.0024 C.2     
   7 C7             3.6227    -0.5889    -0.0356 C.2     
   8 C8             4.7877     0.1218    -0.0425 C.2     
   9 C9             4.7345     1.5280    -0.0346 C.2     
  10 C10            3.4812     2.1736    -0.0189 C.2     
  11 O11            3.4258     3.3917    -0.0123 O.2     
  12 C12            5.9703     2.3140    -0.0413 C.2     
  13 O13            5.9124     3.6618    -0.0337 O.3     
  14 O14            7.0487     1.7516    -0.0537 O.2     
  15 C15            3.6593    -2.0954    -0.0439 C.3     
  16 N16            3.7787    -2.5747    -1.4274 N.3     
  17 C17            4.0548    -4.0165    -1.4628 C.3     
  18 C18            4.3159    -4.4521    -2.9066 C.3     
  19 C19            3.0884    -4.1271    -3.7621 C.3     
  20 C20            2.7950    -2.6270    -3.6700 C.3     
  21 C21            2.5773    -2.2443    -2.2043 C.3     
  22 C22            3.3651    -4.4955    -5.1971 C.ar    
  23 C23            2.8367    -5.6339    -5.7668 C.ar    
  24 C24            1.9484    -6.5718    -4.9920 C.3     
  25 N25            2.0887    -6.3381    -3.5512 N.3     
  26 C26            1.8838    -4.9136    -3.2441 C.3     
  27 C27            4.1740    -3.6583    -5.9508 C.ar    
  28 C28            4.4543    -3.9598    -7.2682 C.ar    
  29 C29            3.9262    -5.1027    -7.8396 C.ar    
  30 C30            3.1206    -5.9363    -7.0907 C.ar    
  31 C31            1.1578    -7.1803    -2.7882 C.3     
  32 H32           -0.9605     1.9226     0.0170 H       
  33 H33           -0.9233    -0.5609     0.0082 H       
  34 H34            1.2282    -1.7389    -0.0187 H       
  35 H35            1.1156     3.1733     0.0087 H       
  36 H36            5.7393    -0.3889    -0.0536 H       
  37 H37            6.7544     4.1373    -0.0385 H       
  38 H38            4.5153    -2.4412     0.5356 H       
  39 H39            2.7412    -2.4836     0.3971 H       
  40 H40            4.9323    -4.2333    -0.8537 H       
  41 H41            3.1962    -4.5604    -1.0691 H       
  42 H42            5.1829    -3.9188    -3.2965 H       
  43 H43            4.5052    -5.5252    -2.9344 H       
  44 H44            3.6389    -2.0657    -4.0713 H       
  45 H45            1.8975    -2.3957    -4.2437 H       
  46 H46            1.7251    -2.7961    -1.8076 H       
  47 H47            2.3818    -1.1743    -2.1335 H       
  48 H48            0.9110    -6.4091    -5.2841 H       
  49 H49            2.2263    -7.6010    -5.2189 H       
  50 H50            1.7956    -4.7804    -2.1659 H       
  51 H51            0.9771    -4.5600    -3.7350 H       
  52 H52            4.5865    -2.7655    -5.5046 H       
  53 H53            5.0841    -3.3044    -7.8514 H       
  54 H54            4.1434    -5.3426    -8.8700 H       
  55 H55            2.7089    -6.8290    -7.5377 H       
  56 H56            1.3190    -8.2268    -3.0471 H       
  57 H57            1.3311    -7.0391    -1.7214 H       
  58 H58            0.1326    -6.9000    -3.0301 H       
@<TRIPOS>BOND
   1    1    2 1
   2    1    6 2
   3    1   32 1
   4    2    3 2
   5    2   33 1
   6    3    4 1
   7    3   34 1
   8    4    5 1
   9    4    7 2
  10    5    6 1
  11    5   10 am
  12    6   35 1
  13    7    8 1
  14    7   15 1
  15    8    9 2
  16    8   36 1
  17    9   10 1
  18    9   12 1
  19   10   11 2
  20   12   13 1
  21   12   14 2
  22   13   37 1
  23   15   16 1
  24   15   38 1
  25   15   39 1
  26   16   17 1
  27   16   21 1
  28   17   18 1
  29   17   40 1
  30   17   41 1
  31   18   19 1
  32   18   42 1
  33   18   43 1
  34   19   20 1
  35   19   22 1
  36   19   26 1
  37   20   21 1
  38   20   44 1
  39   20   45 1
  40   21   46 1
  41   21   47 1
  42   22   23 ar
  43   22   27 ar
  44   23   24 1
  45   23   30 ar
  46   24   25 1
  47   24   48 1
  48   24   49 1
  49   25   26 1
  50   25   31 1
  51   26   50 1
  52   26   51 1
  53   27   28 ar
  54   27   52 1
  55   28   29 ar
  56   28   53 1
  57   29   30 ar
  58   29   54 1
  59   30   55 1
  60   31   56 1
  61   31   57 1
  62   31   58 1

#	End of record

