#	Name: ASD09740520
#	Creating user name:	WinNT
#	Creation time:	15. 06. 2019 21:23

#	Modifying user name:	WinNT
#	Modification time:	15. 06. 2019 21:23

#	Program:	/corina/corina34_cracker 3.40 0067  02.08.2006

@<TRIPOS>MOLECULE
ASD09740520
  47   50    0    0    0
SMALL
NO_CHARGES


@<TRIPOS>ATOM
   1 C1             0.1531     1.3826    -1.2552 C.2     
   2 N2             0.1896     0.0817    -1.4014 N.2     
   3 C3             1.3105     1.9577    -0.8605 C.2     
   4 S4             2.5174     0.6869    -0.6737 S.3     
   5 C5             1.3219    -0.5142    -1.1545 C.2     
   6 C6             1.5266     3.4013    -0.6261 C.ar    
   7 C7             2.7764     3.8611    -0.2192 C.ar    
   8 C8             0.4780     4.3052    -0.8184 C.ar    
   9 C9             0.6741     5.6525    -0.6017 C.ar    
  10 C10            1.9133     6.1212    -0.1907 C.ar    
  11 C11            2.9744     5.2238     0.0004 C.ar    
  12 O12            2.1007     7.4484     0.0210 O.3     
  13 C13            0.9506     8.2904    -0.0810 C.3     
  14 C14            1.1674     9.5535     0.7547 C.3     
  15 C15            0.7310     8.6787    -1.5445 C.3     
  16 C16            4.2548     5.7047     0.4246 C.1     
  17 N17            5.2705     6.0862     0.7612 N.1     
  18 C18            1.5648    -1.9680    -1.2610 C.ar    
  19 C19            0.5313    -2.8232    -1.6546 C.ar    
  20 C20            0.7645    -4.1796    -1.7519 C.ar    
  21 C21            2.0206    -4.6882    -1.4600 C.ar    
  22 C22            3.0459    -3.8466    -1.0700 C.ar    
  23 C23            2.8272    -2.4882    -0.9744 C.ar    
  24 C24           -0.9054    -2.5216    -2.0226 C.3     
  25 C25           -1.4017    -3.7760    -2.7727 C.3     
  26 C26           -0.5000    -4.8861    -2.1923 C.3     
  27 O27           -0.2011    -5.8577    -3.1966 O.3     
  28 H28           -0.7414     1.9581    -1.4422 H       
  29 H29            3.5891     3.1649    -0.0739 H       
  30 H30           -0.4893     3.9470    -1.1383 H       
  31 H31           -0.1401     6.3458    -0.7529 H       
  32 H32            0.0752     7.7561     0.2885 H       
  33 H33            2.0427    10.0878     0.3853 H       
  34 H34            0.2901    10.1957     0.6769 H       
  35 H35            1.3239     9.2769     1.7974 H       
  36 H36            0.5765     7.7788    -2.1399 H       
  37 H37           -0.1463     9.3209    -1.6223 H       
  38 H38            1.6063     9.2129    -1.9139 H       
  39 H39            2.1996    -5.7505    -1.5374 H       
  40 H40            4.0206    -4.2531    -0.8440 H       
  41 H41            3.6280    -1.8305    -0.6701 H       
  42 H42           -1.4999    -2.3585    -1.1236 H       
  43 H43           -0.9540    -1.6481    -2.6728 H       
  44 H44           -2.4503    -3.9719    -2.5489 H       
  45 H45           -1.2462    -3.6722    -3.8465 H       
  46 H46           -0.9852    -5.3600    -1.3390 H       
  47 H47            0.3631    -6.5804    -2.8891 H       
@<TRIPOS>BOND
   1    1    2 1
   2    1    3 2
   3    1   28 1
   4    2    5 2
   5    3    4 1
   6    3    6 1
   7    4    5 1
   8    5   18 1
   9    6    7 ar
  10    6    8 ar
  11    7   11 ar
  12    7   29 1
  13    8    9 ar
  14    8   30 1
  15    9   10 ar
  16    9   31 1
  17   10   11 ar
  18   10   12 1
  19   11   16 1
  20   12   13 1
  21   13   14 1
  22   13   15 1
  23   13   32 1
  24   14   33 1
  25   14   34 1
  26   14   35 1
  27   15   36 1
  28   15   37 1
  29   15   38 1
  30   16   17 3
  31   18   19 ar
  32   18   23 ar
  33   19   20 ar
  34   19   24 1
  35   20   21 ar
  36   20   26 1
  37   21   22 ar
  38   21   39 1
  39   22   23 ar
  40   22   40 1
  41   23   41 1
  42   24   25 1
  43   24   42 1
  44   24   43 1
  45   25   26 1
  46   25   44 1
  47   25   45 1
  48   26   27 1
  49   26   46 1
  50   27   47 1

#	End of record

