#	Name: ASD01813025
#	Creating user name:	WinNT
#	Creation time:	15. 06. 2019 19:29

#	Modifying user name:	WinNT
#	Modification time:	15. 06. 2019 19:29

#	Program:	/corina/corina34_cracker 3.40 0067  02.08.2006

@<TRIPOS>MOLECULE
ASD01813025
  43   45    0    0    0
SMALL
NO_CHARGES


@<TRIPOS>ATOM
   1 C1            -0.0081     1.3230     0.1566 C.2     
   2 C2             0.0042    -0.0205     0.1566 C.2     
   3 N3            -1.1548    -0.7304     0.0175 N.pl3   
   4 C4            -2.3549    -0.1587    -0.1383 C.2     
   5 C5            -2.4700     1.2171    -0.1617 C.2     
   6 C6            -1.2439     2.0098    -0.0037 C.2     
   7 O7            -1.2830     3.2299    -0.0171 O.2     
   8 C8            -1.0801    -2.1934     0.0394 C.3     
   9 C9            -1.8885    -2.7548    -1.1018 C.ar    
  10 C10            1.2314     2.1607     0.3255 C.3     
  11 C11            2.4856     1.3331     0.0532 C.3     
  12 C12            2.3951     0.0434     0.8784 C.3     
  13 C13            1.2773    -0.8185     0.2975 C.3     
  14 C14           -1.3243    -2.8635    -2.3594 C.ar    
  15 C15           -2.0633    -3.3779    -3.4071 C.ar    
  16 C16           -3.3726    -3.7855    -3.1966 C.ar    
  17 C17           -3.9364    -3.6754    -1.9338 C.ar    
  18 C18           -3.1913    -3.1656    -0.8881 C.ar    
  19 O19            1.0421    -1.9303     1.1637 O.3     
  20 O20           -4.1018    -4.2914    -4.2258 O.3     
  21 C21           -5.4428    -4.6909    -3.9359 C.3     
  22 C22           -3.7785     1.8675    -0.3347 C.2     
  23 O23           -4.7811     1.1919    -0.4599 O.2     
  24 O24           -3.8653     3.2123    -0.3542 O.3     
  25 H25           -3.2352    -0.7749    -0.2462 H       
  26 H26           -0.0408    -2.5056    -0.0634 H       
  27 H27           -1.4789    -2.5634     0.9839 H       
  28 H28            1.1960     2.9983    -0.3711 H       
  29 H29            1.2690     2.5443     1.3450 H       
  30 H30            2.5418     1.0881    -1.0074 H       
  31 H31            3.3701     1.8975     0.3484 H       
  32 H32            3.3411    -0.4953     0.8233 H       
  33 H33            2.1698     0.2865     1.9168 H       
  34 H34            1.5804    -1.1862    -0.6828 H       
  35 H35           -0.3052    -2.5457    -2.5228 H       
  36 H36           -1.6223    -3.4623    -4.3894 H       
  37 H37           -4.9554    -3.9921    -1.7674 H       
  38 H38           -3.6297    -3.0797     0.0952 H       
  39 H39            1.7868    -2.5440     1.2270 H       
  40 H40           -5.4332    -5.4696    -3.1733 H       
  41 H41           -6.0069    -3.8324    -3.5715 H       
  42 H42           -5.9112    -5.0754    -4.8419 H       
  43 H43           -4.7463     3.5938    -0.4703 H       
@<TRIPOS>BOND
   1    1    2 2
   2    1   10 1
   3    1    6 1
   4    2    3 1
   5    2   13 1
   6    3    4 1
   7    3    8 1
   8    4    5 2
   9    4   25 1
  10    5    6 1
  11    5   22 1
  12    6    7 2
  13    8    9 1
  14    8   26 1
  15    8   27 1
  16    9   14 ar
  17    9   18 ar
  18   10   11 1
  19   10   28 1
  20   10   29 1
  21   11   12 1
  22   11   30 1
  23   11   31 1
  24   12   13 1
  25   12   32 1
  26   12   33 1
  27   13   19 1
  28   13   34 1
  29   14   15 ar
  30   14   35 1
  31   15   16 ar
  32   15   36 1
  33   16   17 ar
  34   16   20 1
  35   17   18 ar
  36   17   37 1
  37   18   38 1
  38   19   39 1
  39   20   21 1
  40   21   40 1
  41   21   41 1
  42   21   42 1
  43   22   23 2
  44   22   24 1
  45   24   43 1

#	End of record

