#	Name: ASD01890105
#	Creating user name:	WinNT
#	Creation time:	15. 06. 2019 19:50

#	Modifying user name:	WinNT
#	Modification time:	15. 06. 2019 19:50

#	Program:	/corina/corina34_cracker 3.40 0067  02.08.2006

@<TRIPOS>MOLECULE
ASD01890105
  65   67    0    0    0
SMALL
NO_CHARGES


@<TRIPOS>ATOM
   1 C1            -0.0184     1.5028     0.0103 C.2     
   2 C2             0.0021    -0.0041     0.0020 C.3     
   3 C3            -0.7132    -0.5094    -1.2244 C.2     
   4 O4             1.0197     2.1211     0.0037 O.2     
   5 O5            -1.1898     2.1580     0.0194 O.3     
   6 O6            -1.1905     0.2737    -2.0110 O.2     
   7 O7            -0.8199    -1.8295    -1.4429 O.3     
   8 C8             1.4513    -0.4944    -0.0145 C.3     
   9 C9             2.1775     0.0187     1.2307 C.3     
  10 C10            3.6341    -0.3599     1.1544 C.2     
  11 O11            4.0506    -0.9791     0.1981 O.2     
  12 C12            1.4717    -2.0012    -0.0227 C.ar    
  13 C13            2.0698    -2.6784    -1.0691 C.ar    
  14 C14            2.0889    -4.0603    -1.0773 C.ar    
  15 C15            1.5092    -4.7660    -0.0379 C.ar    
  16 C16            0.9108    -4.0878     1.0090 C.ar    
  17 C17            0.8974    -2.7057     1.0188 C.ar    
  18 Cl18           1.5323    -6.5018    -0.0478 Cl      
  19 C19            4.5491     0.0208     2.2373 C.ar    
  20 C20            5.9078    -0.3296     2.1710 C.ar    
  21 C21            6.7617     0.0359     3.2004 C.ar    
  22 C22            6.2776     0.7407     4.2847 C.ar    
  23 C23            4.9381     1.0889     4.3550 C.ar    
  24 C24            4.0747     0.7404     3.3402 C.ar    
  25 O25            6.3818    -1.0222     1.1058 O.3     
  26 C26            7.7743    -1.3429     1.1081 C.3     
  27 C27            8.1157    -2.1076    -0.1448 C.ar    
  28 C28            8.5103    -1.4291    -1.2828 C.ar    
  29 C29            8.8234    -2.1306    -2.4320 C.ar    
  30 C30            8.7424    -3.5105    -2.4432 C.ar    
  31 C31            8.3487    -4.1890    -1.3050 C.ar    
  32 C32            8.0398    -3.4878    -0.1544 C.ar    
  33 C33           -1.1335     3.6089     0.0270 C.3     
  34 C34           -2.5551     4.1744     0.0369 C.3     
  35 C35           -1.5220    -2.2441    -2.6444 C.3     
  36 C36           -1.5419    -3.7720    -2.7217 C.3     
  37 H37           -0.4983    -0.3791     0.8948 H       
  38 H38            1.9516    -0.1193    -0.9073 H       
  39 H39            2.0863     1.1036     1.2833 H       
  40 H40            1.7324    -0.4269     2.1203 H       
  41 H41            2.5219    -2.1274    -1.8805 H       
  42 H42            2.5558    -4.5892    -1.8949 H       
  43 H43            0.4582    -4.6381     1.8206 H       
  44 H44            0.4342    -2.1761     1.8382 H       
  45 H45            7.8071    -0.2315     3.1543 H       
  46 H46            6.9476     1.0223     5.0837 H       
  47 H47            4.5703     1.6403     5.2077 H       
  48 H48            3.0325     1.0180     3.3975 H       
  49 H49            8.3589    -0.4236     1.1433 H       
  50 H50            8.0051    -1.9538     1.9808 H       
  51 H51            8.5735    -0.3510    -1.2740 H       
  52 H52            9.1309    -1.6005    -3.3213 H       
  53 H53            8.9863    -4.0585    -3.3413 H       
  54 H54            8.2852    -5.2671    -1.3138 H       
  55 H55            7.7358    -4.0182     0.7359 H       
  56 H56           -0.6017     3.9472     0.9164 H       
  57 H57           -0.6102     3.9569    -0.8636 H       
  58 H58           -2.5128     5.2636     0.0426 H       
  59 H59           -3.0869     3.8361    -0.8525 H       
  60 H60           -3.0784     3.8265     0.9275 H       
  61 H61           -2.5447    -1.8684    -2.6155 H       
  62 H62           -1.0120    -1.8426    -3.5200 H       
  63 H63           -2.0690    -4.0833    -3.6236 H       
  64 H64           -0.5192    -4.1478    -2.7506 H       
  65 H65           -2.0519    -4.1735    -1.8461 H       
@<TRIPOS>BOND
   1    1    2 1
   2    1    4 2
   3    1    5 1
   4    2    3 1
   5    2    8 1
   6    2   37 1
   7    3    6 2
   8    3    7 1
   9    5   33 1
  10    7   35 1
  11    8    9 1
  12    8   12 1
  13    8   38 1
  14    9   10 1
  15    9   39 1
  16    9   40 1
  17   10   11 2
  18   10   19 1
  19   12   13 ar
  20   12   17 ar
  21   13   14 ar
  22   13   41 1
  23   14   15 ar
  24   14   42 1
  25   15   16 ar
  26   15   18 1
  27   16   17 ar
  28   16   43 1
  29   17   44 1
  30   19   20 ar
  31   19   24 ar
  32   20   21 ar
  33   20   25 1
  34   21   22 ar
  35   21   45 1
  36   22   23 ar
  37   22   46 1
  38   23   24 ar
  39   23   47 1
  40   24   48 1
  41   25   26 1
  42   26   27 1
  43   26   49 1
  44   26   50 1
  45   27   28 ar
  46   27   32 ar
  47   28   29 ar
  48   28   51 1
  49   29   30 ar
  50   29   52 1
  51   30   31 ar
  52   30   53 1
  53   31   32 ar
  54   31   54 1
  55   32   55 1
  56   33   34 1
  57   33   56 1
  58   33   57 1
  59   34   58 1
  60   34   59 1
  61   34   60 1
  62   35   36 1
  63   35   61 1
  64   35   62 1
  65   36   63 1
  66   36   64 1
  67   36   65 1

#	End of record

