#	Name: ASD01915983
#	Creating user name:	WinNT
#	Creation time:	15. 06. 2019 20:06

#	Modifying user name:	WinNT
#	Modification time:	15. 06. 2019 20:06

#	Program:	/corina/corina34_cracker 3.40 0067  02.08.2006

@<TRIPOS>MOLECULE
ASD01915983
  42   43    0    0    0
SMALL
NO_CHARGES


@<TRIPOS>ATOM
   1 C1            -0.0192     1.4094     0.1334 C.ar    
   2 C2            -0.0052     0.0081     0.1169 C.ar    
   3 C3             1.2264    -0.6596     0.0581 C.ar    
   4 C4             2.3814     0.0969     0.0186 C.ar    
   5 C5             2.2853     1.4890     0.0384 C.ar    
   6 N6             1.1019     2.0906     0.0944 N.ar    
   7 C7             3.5177     2.3060    -0.0032 C.2     
   8 N8             3.4341     3.6468    -0.1123 N.am    
   9 O9             4.6059     1.7682     0.0611 O.2     
  10 C10            4.6457     4.4657    -0.0258 C.3     
  11 C11            5.6137     4.0638    -1.1404 C.3     
  12 C12            4.2754     5.9422    -0.1797 C.3     
  13 C13            5.3135     4.2464     1.3332 C.3     
  14 C14           -1.2308    -0.7311     0.1600 C.1     
  15 C15           -2.2357    -1.3371     0.1954 C.1     
  16 C16           -3.4614    -2.0764     0.2385 C.ar    
  17 C17           -3.4397    -3.4738     0.2217 C.ar    
  18 C18           -4.6851    -1.4041     0.3033 C.ar    
  19 C19           -5.8614    -2.1228     0.3445 C.ar    
  20 C20           -5.8322    -3.5062     0.3218 C.ar    
  21 C21           -4.6242    -4.1789     0.2634 C.ar    
  22 C22            2.1316     4.2851    -0.3175 C.3     
  23 H23           -0.9623     1.9341     0.1741 H       
  24 H24            1.2709    -1.7386     0.0443 H       
  25 H25            3.3477    -0.3834    -0.0268 H       
  26 H26            5.1379     4.2201    -2.1086 H       
  27 H27            6.5151     4.6732    -1.0760 H       
  28 H28            5.8775     3.0120    -1.0307 H       
  29 H29            3.5858     6.2285     0.6144 H       
  30 H30            5.1768     6.5516    -0.1153 H       
  31 H31            3.7996     6.0984    -1.1479 H       
  32 H32            5.5774     3.1946     1.4429 H       
  33 H33            6.2150     4.8558     1.3976 H       
  34 H34            4.6239     4.5328     2.1273 H       
  35 H35           -2.4977    -4.0001     0.1758 H       
  36 H36           -4.7094    -0.3245     0.3214 H       
  37 H37           -6.8077    -1.6048     0.3949 H       
  38 H38           -6.7566    -4.0637     0.3542 H       
  39 H39           -4.6092    -5.2586     0.2456 H       
  40 H40            1.6401     4.4256     0.6452 H       
  41 H41            2.2731     5.2533    -0.7979 H       
  42 H42            1.5124     3.6515    -0.9525 H       
@<TRIPOS>BOND
   1    1    2 ar
   2    1    6 ar
   3    1   23 1
   4    2    3 ar
   5    2   14 1
   6    3    4 ar
   7    3   24 1
   8    4    5 ar
   9    4   25 1
  10    5    6 ar
  11    5    7 1
  12    7    8 am
  13    7    9 2
  14    8   10 1
  15    8   22 1
  16   10   11 1
  17   10   12 1
  18   10   13 1
  19   11   26 1
  20   11   27 1
  21   11   28 1
  22   12   29 1
  23   12   30 1
  24   12   31 1
  25   13   32 1
  26   13   33 1
  27   13   34 1
  28   14   15 3
  29   15   16 1
  30   16   17 ar
  31   16   18 ar
  32   17   21 ar
  33   17   35 1
  34   18   19 ar
  35   18   36 1
  36   19   20 ar
  37   19   37 1
  38   20   21 ar
  39   20   38 1
  40   21   39 1
  41   22   40 1
  42   22   41 1
  43   22   42 1

#	End of record

