#	Name: ASD07931923
#	Creating user name:	WinNT
#	Creation time:	15. 06. 2019 21:13

#	Modifying user name:	WinNT
#	Modification time:	15. 06. 2019 21:13

#	Program:	/corina/corina34_cracker 3.40 0067  02.08.2006

@<TRIPOS>MOLECULE
ASD07931923
  35   37    0    0    0
SMALL
NO_CHARGES


@<TRIPOS>ATOM
   1 S1            -0.0218     1.7566     0.0117 S.3     
   2 C2             0.0021    -0.0041     0.0020 C.2     
   3 N3             1.0067    -0.6801    -0.4023 N.2     
   4 C4             2.2788    -0.2480    -0.9298 C.3     
   5 C5             2.4018     1.2696    -1.1298 C.3     
   6 C6             1.7642     2.0612    -0.0037 C.3     
   7 O7             1.6798     0.2587    -3.1728 O.3     
   8 C8             2.3747    -0.7374    -2.4040 C.3     
   9 C9             1.6874     1.5096    -2.4693 C.3     
  10 N10           -1.1092    -0.6801     0.4498 N.pl3   
  11 C11            2.4451     2.5606    -3.2830 C.3     
  12 F12            3.7468     2.1108    -3.5287 F       
  13 F13            1.7873     2.7718    -4.4995 F       
  14 F14            2.4939     3.7603    -2.5649 F       
  15 C15            3.4157    -0.7905    -0.1027 C.ar    
  16 C16            4.7240    -0.5028    -0.4513 C.ar    
  17 C17            5.7689    -1.0027     0.3106 C.ar    
  18 C18            5.5016    -1.7884     1.4183 C.ar    
  19 C19            4.1941    -2.0739     1.7638 C.ar    
  20 C20            3.1520    -1.5707     1.0073 C.ar    
  21 N21            3.9092    -2.9142     2.9484 N.pl3   
  22 O22            4.8266    -3.3537     3.6183 O.2     
  23 O23            2.7572    -3.1662     3.2535 O.2     
  24 F24            7.0466    -0.7235    -0.0280 F       
  25 F25            4.9824     0.2640    -1.5332 F       
  26 H26            3.4526     1.5441    -1.2228 H       
  27 H27            1.9502     3.1243    -0.1561 H       
  28 H28            2.1942     1.7497     0.9482 H       
  29 H29            3.4173    -0.7975    -2.7161 H       
  30 H30            1.8892    -1.7072    -2.5136 H       
  31 H31            0.6646     1.8412    -2.2904 H       
  32 H32           -1.8839    -0.1868     0.7619 H       
  33 H33           -1.1182    -1.6500     0.4533 H       
  34 H34            6.3146    -2.1787     2.0125 H       
  35 H35            2.1309    -1.7912     1.2814 H       
@<TRIPOS>BOND
   1    1    2 1
   2    1    6 1
   3    2    3 2
   4    2   10 1
   5    3    4 1
   6    4    8 1
   7    4   15 1
   8    4    5 1
   9    5    6 1
  10    5    9 1
  11    5   26 1
  12    6   27 1
  13    6   28 1
  14    7    8 1
  15    7    9 1
  16    8   29 1
  17    8   30 1
  18    9   11 1
  19    9   31 1
  20   10   32 1
  21   10   33 1
  22   11   12 1
  23   11   13 1
  24   11   14 1
  25   15   16 ar
  26   15   20 ar
  27   16   17 ar
  28   16   25 1
  29   17   18 ar
  30   17   24 1
  31   18   19 ar
  32   18   34 1
  33   19   20 ar
  34   19   21 1
  35   20   35 1
  36   21   22 2
  37   21   23 2

#	End of record

