#	Name: ASD00170690
#	Creating user name:	WinNT
#	Creation time:	15. 06. 2019 18:32

#	Modifying user name:	WinNT
#	Modification time:	15. 06. 2019 18:32

#	Program:	/corina/corina34_cracker 3.40 0067  02.08.2006

@<TRIPOS>MOLECULE
ASD00170690
  41   42    0    0    0
SMALL
NO_CHARGES


@<TRIPOS>ATOM
   1 N1             0.0540     1.2652     0.5026 N.pl3   
   2 C2            -0.0412    -0.1024     0.3440 C.2     
   3 S3             1.2595    -1.1240    -0.0677 S.3     
   4 C4             0.2469    -2.5564    -0.0387 C.2     
   5 C5            -1.0027    -2.2460     0.2690 C.2     
   6 C6            -1.1979    -0.8304     0.5021 C.2     
   7 C7            -2.4868    -0.2374     0.8571 C.2     
   8 O8            -3.1907     0.2522    -0.0075 O.2     
   9 C9            -2.9355    -0.2324     2.2668 C.ar    
  10 C10           -2.0817    -0.6807     3.2755 C.ar    
  11 C11           -2.5063    -0.6735     4.5883 C.ar    
  12 C12           -3.7755    -0.2236     4.9055 C.ar    
  13 C13           -4.6271     0.2223     3.9099 C.ar    
  14 C14           -4.2126     0.2261     2.5943 C.ar    
  15 C15           -6.0079     0.7107     4.2646 C.3     
  16 F16           -6.1944     0.6175     5.6480 F       
  17 F17           -6.1483     2.0437     3.8639 F       
  18 F18           -6.9628    -0.0757     3.6113 F       
  19 C19           -2.1091    -3.2640     0.3722 C.3     
  20 C20           -2.7647    -3.4454    -0.9982 C.3     
  21 C21           -1.7346    -3.9934    -1.9879 C.3     
  22 C22           -3.9311    -4.4285    -0.8795 C.3     
  23 C23           -3.2841    -2.0958    -1.4978 C.3     
  24 H24            0.9194     1.7003     0.4515 H       
  25 H25           -0.7451     1.7918     0.6612 H       
  26 H26            0.5961    -3.5574    -0.2447 H       
  27 H27           -1.0909    -1.0329     3.0291 H       
  28 H28           -1.8466    -1.0202     5.3699 H       
  29 H29           -4.1033    -0.2206     5.9345 H       
  30 H30           -4.8780     0.5747     1.8183 H       
  31 H31           -1.6967    -4.2160     0.7066 H       
  32 H32           -2.8545    -2.9191     1.0888 H       
  33 H33           -1.3645    -4.9549    -1.6321 H       
  34 H34           -2.2017    -4.1227    -2.9643 H       
  35 H35           -0.9037    -3.2931    -2.0725 H       
  36 H36           -4.6649    -4.0381    -0.1744 H       
  37 H37           -4.3982    -4.5577    -1.8558 H       
  38 H38           -3.5610    -5.3900    -0.5236 H       
  39 H39           -2.4536    -1.3947    -1.5801 H       
  40 H40           -3.7491    -2.2246    -2.4752 H       
  41 H41           -4.0197    -1.7065    -0.7939 H       
@<TRIPOS>BOND
   1    1    2 1
   2    1   24 1
   3    1   25 1
   4    2    3 1
   5    2    6 2
   6    3    4 1
   7    4    5 2
   8    4   26 1
   9    5    6 1
  10    5   19 1
  11    6    7 1
  12    7    8 2
  13    7    9 1
  14    9   10 ar
  15    9   14 ar
  16   10   11 ar
  17   10   27 1
  18   11   12 ar
  19   11   28 1
  20   12   13 ar
  21   12   29 1
  22   13   14 ar
  23   13   15 1
  24   14   30 1
  25   15   16 1
  26   15   17 1
  27   15   18 1
  28   19   20 1
  29   19   31 1
  30   19   32 1
  31   20   21 1
  32   20   22 1
  33   20   23 1
  34   21   33 1
  35   21   34 1
  36   21   35 1
  37   22   36 1
  38   22   37 1
  39   22   38 1
  40   23   39 1
  41   23   40 1
  42   23   41 1

#	End of record

