#	Name: ASD03081190
#	Creating user name:	WinNT
#	Creation time:	15. 06. 2019 20:27

#	Modifying user name:	WinNT
#	Modification time:	15. 06. 2019 20:27

#	Program:	/corina/corina34_cracker 3.40 0067  02.08.2006

@<TRIPOS>MOLECULE
ASD03081190
  33   33    0    0    0
SMALL
NO_CHARGES


@<TRIPOS>ATOM
   1 C1            -0.0187     1.5258     0.0104 C.3     
   2 C2             0.0021    -0.0041     0.0020 C.3     
   3 C3             0.7182    -0.4975    -1.2568 C.3     
   4 C4             0.6316    -2.0003    -1.3275 C.2     
   5 C5             0.1306    -2.5853    -2.4064 C.2     
   6 N6             0.7126    -0.4907     1.1921 N.3     
   7 C7             0.4898    -4.8460    -1.4119 C.ar    
   8 C8             0.0457    -4.0595    -2.4757 C.ar    
   9 C9            -0.4814    -4.6881    -3.6082 C.ar    
  10 C10           -0.5392    -6.0757    -3.6227 C.ar    
  11 C11           -0.0761    -6.7842    -2.5226 C.ar    
  12 N12            0.4148    -6.1594    -1.4700 N.ar    
  13 O13           -1.0436    -6.7319    -4.7008 O.3     
  14 C14           -1.0685    -8.1593    -4.6382 C.3     
  15 C15           -0.1906    -0.5721     2.3478 C.3     
  16 H16            1.0039     1.9031     0.0027 H       
  17 H17           -0.5459     1.8868    -0.8726 H       
  18 H18           -0.5289     1.8773     0.9072 H       
  19 H19           -1.0205    -0.3814     0.0098 H       
  20 H20            0.2444    -0.0644    -2.1377 H       
  21 H21            1.7648    -0.1951    -1.2215 H       
  22 H22            0.9779    -2.6007    -0.4992 H       
  23 H23           -0.2156    -1.9849    -3.2346 H       
  24 H24            1.1511    -1.3815     1.0124 H       
  25 H25            0.9030    -4.3727    -0.5335 H       
  26 H26           -0.8345    -4.1099    -4.4492 H       
  27 H27           -0.1187    -7.8633    -2.5285 H       
  28 H28           -0.0529    -8.5355    -4.5152 H       
  29 H29           -1.6780    -8.4753    -3.7916 H       
  30 H30           -1.4937    -8.5561    -5.5601 H       
  31 H31           -0.5958     0.4167     2.5627 H       
  32 H32           -1.0071    -1.2584     2.1233 H       
  33 H33            0.3610    -0.9350     3.2151 H       
@<TRIPOS>BOND
   1    1    2 1
   2    1   16 1
   3    1   17 1
   4    1   18 1
   5    2    3 1
   6    2    6 1
   7    2   19 1
   8    3    4 1
   9    3   20 1
  10    3   21 1
  11    4    5 2
  12    4   22 1
  13    5    8 1
  14    5   23 1
  15    6   15 1
  16    6   24 1
  17    7    8 ar
  18    7   12 ar
  19    7   25 1
  20    8    9 ar
  21    9   10 ar
  22    9   26 1
  23   10   11 ar
  24   10   13 1
  25   11   12 ar
  26   11   27 1
  27   13   14 1
  28   14   28 1
  29   14   29 1
  30   14   30 1
  31   15   31 1
  32   15   32 1
  33   15   33 1

#	End of record

