#	Name: ASD01028767
#	Creating user name:	WinNT
#	Creation time:	15. 06. 2019 18:58

#	Modifying user name:	WinNT
#	Modification time:	15. 06. 2019 18:58

#	Program:	/corina/corina34_cracker 3.40 0067  02.08.2006

@<TRIPOS>MOLECULE
ASD01028767
  39   41    0    0    0
SMALL
NO_CHARGES


@<TRIPOS>ATOM
   1 N1            -0.0157     1.3059     0.0092 N.ar    
   2 C2             0.0021    -0.0041     0.0020 C.ar    
   3 C3             1.2047    -0.7195    -0.0133 C.ar    
   4 C4             2.3983    -0.0476    -0.0211 C.ar    
   5 C5             2.3699     1.3597    -0.0132 C.ar    
   6 N6             3.4995     2.0727    -0.0196 N.ar    
   7 C7             3.4781     3.3843    -0.0120 C.ar    
   8 C8             2.2813     4.0950     0.0036 C.ar    
   9 C9             1.0888     3.4259     0.0114 C.ar    
  10 C10            1.1149     2.0165     0.0022 C.ar    
  11 O11            1.1884    -2.0780    -0.0200 O.3     
  12 C12           -0.0925    -2.7114    -0.0108 C.3     
  13 C13            0.0897    -4.2305    -0.0202 C.3     
  14 C14           -1.2817    -4.9088    -0.0103 C.3     
  15 O15           -1.1579    -8.9471     1.0894 O.3     
  16 C16           -2.1675    -8.5663     0.1507 C.3     
  17 C17           -2.3836    -7.0526     0.2279 C.3     
  18 N18           -1.1067    -6.3673    -0.0194 N.3     
  19 C19           -0.0940    -6.7825     0.9620 C.3     
  20 C20            0.0992    -8.2989     0.8775 C.3     
  21 Cl21          -0.4172     4.2892     0.0320 Cl      
  22 H22           -0.9331    -0.5443     0.0084 H       
  23 H23            3.3360    -0.5833    -0.0326 H       
  24 H24            4.4122     3.9262    -0.0176 H       
  25 H25            2.2947     5.1749     0.0100 H       
  26 H26           -0.6373    -2.4164     0.8861 H       
  27 H27           -0.6546    -2.4074    -0.8938 H       
  28 H28            0.6345    -4.5255    -0.9171 H       
  29 H29            0.6518    -4.5345     0.8628 H       
  30 H30           -1.8264    -4.6138     0.8865 H       
  31 H31           -1.8438    -4.6047    -0.8933 H       
  32 H32           -1.8495    -8.8377    -0.8559 H       
  33 H33           -3.0989    -9.0796     0.3897 H       
  34 H34           -3.1110    -6.7499    -0.5253 H       
  35 H35           -2.7530    -6.7878     1.2186 H       
  36 H36            0.8499    -6.2827     0.7447 H       
  37 H37           -0.4267    -6.5134     1.9645 H       
  38 H38            0.8071    -8.6189     1.6421 H       
  39 H39            0.4831    -8.5626    -0.1080 H       
@<TRIPOS>BOND
   1    1    2 ar
   2    1   10 ar
   3    2    3 ar
   4    2   22 1
   5    3    4 ar
   6    3   11 1
   7    4    5 ar
   8    4   23 1
   9    5    6 ar
  10    5   10 ar
  11    6    7 ar
  12    7    8 ar
  13    7   24 1
  14    8    9 ar
  15    8   25 1
  16    9   10 ar
  17    9   21 1
  18   11   12 1
  19   12   13 1
  20   12   26 1
  21   12   27 1
  22   13   14 1
  23   13   28 1
  24   13   29 1
  25   14   18 1
  26   14   30 1
  27   14   31 1
  28   15   16 1
  29   15   20 1
  30   16   17 1
  31   16   32 1
  32   16   33 1
  33   17   18 1
  34   17   34 1
  35   17   35 1
  36   18   19 1
  37   19   20 1
  38   19   36 1
  39   19   37 1
  40   20   38 1
  41   20   39 1

#	End of record

