#	Name: ASD02198185
#	Creating user name:	WinNT
#	Creation time:	15. 06. 2019 20:18

#	Modifying user name:	WinNT
#	Modification time:	15. 06. 2019 20:18

#	Program:	/corina/corina34_cracker 3.40 0067  02.08.2006

@<TRIPOS>MOLECULE
ASD02198185
  46   49    0    0    0
SMALL
NO_CHARGES


@<TRIPOS>ATOM
   1 C1            -0.0156     1.3781    -0.0260 C.2     
   2 C2             0.0072    -0.0011    -0.0109 C.2     
   3 C3            -1.1787    -0.8006     0.0602 C.1     
   4 S4             1.5646     2.0119    -0.1157 S.3     
   5 C5             2.2781     0.4071    -0.1340 C.2     
   6 C6             1.2873    -0.5460    -0.0712 C.2     
   7 C7             3.6580     0.1362    -0.2033 C.2     
   8 C8             4.6262     1.2485    -0.2671 C.2     
   9 O9             4.0534    -1.0179    -0.2107 O.2     
  10 N10            1.5380    -1.9089    -0.0682 N.pl3   
  11 N11           -1.1600     2.1397     0.0193 N.pl3   
  12 N12           -2.1195    -1.4347     0.1166 N.1     
  13 C13            5.9875     1.1468    -0.3374 C.2     
  14 C14           -1.0702     3.5297     0.1319 C.ar    
  15 C15           -1.9780     4.3418    -0.5372 C.ar    
  16 C16           -1.8902     5.7165    -0.4265 C.ar    
  17 C17           -0.9008     6.2883     0.3493 C.ar    
  18 C18            0.0106     5.4817     1.0219 C.ar    
  19 C19           -0.0779     4.1004     0.9167 C.ar    
  20 S20            1.2728     6.2120     2.0109 S.3     
  21 C21            0.9591     7.9891     1.8261 C.3     
  22 C22            6.4266     2.4976    -0.3767 C.2     
  23 N23            5.3467     3.2373    -0.3288 N.2     
  24 O24            4.3439     2.5646    -0.2735 O.3     
  25 C25            7.8299     2.9754    -0.4558 C.ar    
  26 C26            8.1027     4.3412    -0.4865 C.ar    
  27 C27            9.4093     4.7800    -0.5596 C.ar    
  28 C28           10.4469     3.8664    -0.6023 C.ar    
  29 C29           10.1817     2.5092    -0.5720 C.ar    
  30 C30            8.8791     2.0596    -0.4937 C.ar    
  31 H31            2.4508    -2.2342    -0.1119 H       
  32 H32            0.8007    -2.5375    -0.0224 H       
  33 H33           -2.0294     1.7120    -0.0269 H       
  34 H34            6.5886     0.2498    -0.3578 H       
  35 H35           -2.7529     3.8981    -1.1447 H       
  36 H36           -2.5966     6.3452    -0.9482 H       
  37 H37           -0.8348     7.3630     0.4333 H       
  38 H38            0.6284     3.4715     1.4382 H       
  39 H39            1.6928     8.5497     2.4052 H       
  40 H40            1.0388     8.2647     0.7745 H       
  41 H41           -0.0428     8.2207     2.1874 H       
  42 H42            7.2932     5.0554    -0.4536 H       
  43 H43            9.6218     5.8386    -0.5839 H       
  44 H44           11.4678     4.2140    -0.6598 H       
  45 H45           10.9956     1.8001    -0.6056 H       
  46 H46            8.6732     0.9997    -0.4701 H       
@<TRIPOS>BOND
   1    1    2 2
   2    1    4 1
   3    1   11 1
   4    2    3 1
   5    2    6 1
   6    3   12 3
   7    4    5 1
   8    5    6 2
   9    5    7 1
  10    6   10 1
  11    7    8 1
  12    7    9 2
  13    8   13 2
  14    8   24 1
  15   10   31 1
  16   10   32 1
  17   11   14 1
  18   11   33 1
  19   13   22 1
  20   13   34 1
  21   14   15 ar
  22   14   19 ar
  23   15   16 ar
  24   15   35 1
  25   16   17 ar
  26   16   36 1
  27   17   18 ar
  28   17   37 1
  29   18   19 ar
  30   18   20 1
  31   19   38 1
  32   20   21 1
  33   21   39 1
  34   21   40 1
  35   21   41 1
  36   22   23 2
  37   22   25 1
  38   23   24 1
  39   25   26 ar
  40   25   30 ar
  41   26   27 ar
  42   26   42 1
  43   27   28 ar
  44   27   43 1
  45   28   29 ar
  46   28   44 1
  47   29   30 ar
  48   29   45 1
  49   30   46 1

#	End of record

