#	Name: ASD00069207
#	Creating user name:	WinNT
#	Creation time:	15. 06. 2019 18:29

#	Modifying user name:	WinNT
#	Modification time:	15. 06. 2019 18:29

#	Program:	/corina/corina34_cracker 3.40 0067  02.08.2006

@<TRIPOS>MOLECULE
ASD00069207
  80   85    0    0    0
SMALL
NO_CHARGES


@<TRIPOS>ATOM
   1 N1            -0.0293     1.5008     0.1412 N.am    
   2 C2            -0.0119     0.0307     0.1861 C.3     
   3 C3             0.8894    -0.4801    -0.9431 C.3     
   4 N4             2.2076     0.1601    -0.8408 N.3     
   5 C5             2.1093     1.6144    -1.0237 C.3     
   6 C6             1.2580     2.2111     0.1021 C.3     
   7 C7            -1.1941     2.1787     0.1304 C.2     
   8 O8            -2.2485     1.5754     0.1579 O.2     
   9 O9            -1.1894     3.5245     0.0891 O.3     
  10 C10            3.5629    -1.9124    -3.4216 C.ar    
  11 N11            2.7163    -1.3762    -2.5550 N.ar    
  12 C12            3.1006    -0.3948    -1.7437 C.ar    
  13 C13            4.4133     0.0685    -1.8139 C.ar    
  14 C14            5.2746    -0.5197    -2.7375 C.ar    
  15 N15            4.8166    -1.4996    -3.5178 N.ar    
  16 C16            8.5088     1.0343    -2.5017 C.2     
  17 N17            7.2563     0.9058    -2.1273 N.2     
  18 C18            6.6804    -0.0632    -2.8510 C.2     
  19 C19            7.6273    -0.5604    -3.7193 C.2     
  20 N20            8.7666     0.1304    -3.4949 N.pl3   
  21 C21            9.4761     1.9991    -1.9468 C.2     
  22 N22            9.0977     2.8461    -0.9691 N.am    
  23 O23           10.6154     2.0305    -2.3714 O.2     
  24 C24           10.0439     3.6791    -0.3594 C.ar    
  25 C25            9.6772     4.9528     0.0767 C.ar    
  26 C26           10.6192     5.7726     0.6796 C.ar    
  27 C27           11.9173     5.3270     0.8471 C.ar    
  28 C28           12.2808     4.0653     0.4146 C.ar    
  29 C29           11.3466     3.2386    -0.1821 C.ar    
  30 N30            8.3633     5.4016    -0.0942 N.3     
  31 C31            8.0429     5.5625    -1.5194 C.3     
  32 C32            6.5769     5.9768    -1.6664 C.3     
  33 N33            6.3489     7.2300    -0.9335 N.3     
  34 C34            6.6692     7.0691     0.4917 C.3     
  35 C35            8.1352     6.6548     0.6386 C.3     
  36 N36            3.1260    -2.9358    -4.2446 N.pl3   
  37 C37            4.0457    -3.5428    -5.2099 C.3     
  38 C38           -2.4807     4.1882     0.0798 C.3     
  39 C39           -2.2780     5.6808     0.0323 C.ar    
  40 C40           -2.1953     6.3286    -1.1860 C.ar    
  41 C41           -2.0093     7.6977    -1.2296 C.ar    
  42 C42           -1.9065     8.4190    -0.0549 C.ar    
  43 C43           -1.9901     7.7713     1.1635 C.ar    
  44 C44           -2.1804     6.4028     1.2071 C.ar    
  45 H45            0.3810    -0.3016     1.1470 H       
  46 H46           -1.0233    -0.3518     0.0488 H       
  47 H47            1.0024    -1.5609    -0.8576 H       
  48 H48            0.4402    -0.2360    -1.9057 H       
  49 H49            3.1069     2.0526    -0.9967 H       
  50 H50            1.6431     1.8293    -1.9852 H       
  51 H51            1.0862     3.2700    -0.0907 H       
  52 H52            1.7729     2.0883     1.0550 H       
  53 H53            4.7543     0.8643    -1.1683 H       
  54 H54            7.4862    -1.3514    -4.4409 H       
  55 H55            9.6121     0.0078    -3.9542 H       
  56 H56            8.1700     2.8786    -0.6878 H       
  57 H57           10.3389     6.7592     1.0180 H       
  58 H58           12.6497     5.9668     1.3168 H       
  59 H59           13.2962     3.7223     0.5475 H       
  60 H60           11.6329     2.2517    -0.5144 H       
  61 H61            8.6832     6.3315    -1.9515 H       
  62 H62            8.2076     4.6180    -2.0380 H       
  63 H63            6.3448     6.1249    -2.7210 H       
  64 H64            5.9355     5.1953    -1.2588 H       
  65 H65            6.8772     7.9876    -1.3396 H       
  66 H66            6.5045     8.0135     1.0103 H       
  67 H67            6.0289     6.3001     0.9237 H       
  68 H68            8.3673     6.5067     1.6933 H       
  69 H69            8.7766     7.4362     0.2310 H       
  70 H70            2.2108    -3.2511    -4.1822 H       
  71 H71            4.3998    -2.7801    -5.9035 H       
  72 H72            4.8949    -3.9750    -4.6805 H       
  73 H73            3.5267    -4.3249    -5.7640 H       
  74 H74           -3.0464     3.8703    -0.7960 H       
  75 H75           -3.0311     3.9249     0.9830 H       
  76 H76           -2.2757     5.7651    -2.1038 H       
  77 H77           -1.9440     8.2038    -2.1815 H       
  78 H78           -1.7605     9.4885    -0.0889 H       
  79 H79           -1.9094     8.3348     2.0813 H       
  80 H80           -2.2494     5.8972     2.1589 H       
@<TRIPOS>BOND
   1    1    2 1
   2    1    6 1
   3    1    7 am
   4    2    3 1
   5    2   45 1
   6    2   46 1
   7    3    4 1
   8    3   47 1
   9    3   48 1
  10    4    5 1
  11    4   12 1
  12    5    6 1
  13    5   49 1
  14    5   50 1
  15    6   51 1
  16    6   52 1
  17    7    8 2
  18    7    9 1
  19    9   38 1
  20   10   11 ar
  21   10   15 ar
  22   10   36 1
  23   11   12 ar
  24   12   13 ar
  25   13   14 ar
  26   13   53 1
  27   14   15 ar
  28   14   18 1
  29   16   17 2
  30   16   20 1
  31   16   21 1
  32   17   18 1
  33   18   19 2
  34   19   20 1
  35   19   54 1
  36   20   55 1
  37   21   22 am
  38   21   23 2
  39   22   24 1
  40   22   56 1
  41   24   25 ar
  42   24   29 ar
  43   25   26 ar
  44   25   30 1
  45   26   27 ar
  46   26   57 1
  47   27   28 ar
  48   27   58 1
  49   28   29 ar
  50   28   59 1
  51   29   60 1
  52   30   31 1
  53   30   35 1
  54   31   32 1
  55   31   61 1
  56   31   62 1
  57   32   33 1
  58   32   63 1
  59   32   64 1
  60   33   34 1
  61   33   65 1
  62   34   35 1
  63   34   66 1
  64   34   67 1
  65   35   68 1
  66   35   69 1
  67   36   37 1
  68   36   70 1
  69   37   71 1
  70   37   72 1
  71   37   73 1
  72   38   39 1
  73   38   74 1
  74   38   75 1
  75   39   40 ar
  76   39   44 ar
  77   40   41 ar
  78   40   76 1
  79   41   42 ar
  80   41   77 1
  81   42   43 ar
  82   42   78 1
  83   43   44 ar
  84   43   79 1
  85   44   80 1

#	End of record

