#	Name: ASD06350034
#	Creating user name:	WinNT
#	Creation time:	15. 06. 2019 21:06

#	Modifying user name:	WinNT
#	Modification time:	15. 06. 2019 21:06

#	Program:	/corina/corina34_cracker 3.40 0067  02.08.2006

@<TRIPOS>MOLECULE
ASD06350034
  28   29    0    0    0
SMALL
NO_CHARGES


@<TRIPOS>ATOM
   1 C1             0.5287     1.4574     0.2548 C.3     
   2 N2             0.4303    -0.0031     0.1960 N.pl3   
   3 C3             0.9207    -0.6861    -0.9033 C.ar    
   4 N4             1.4758    -0.0030    -1.8933 N.ar    
   5 C5             1.9561    -0.6222    -2.9613 C.ar    
   6 C6             1.8738    -1.9996    -3.0377 C.ar    
   7 C7             1.2840    -2.6908    -1.9798 C.ar    
   8 N8             0.8281    -2.0072    -0.9372 N.ar    
   9 O9             1.1821    -4.0417    -2.0135 O.3     
  10 C10            0.6884    -4.6721    -0.9148 C.ar    
  11 C11            1.5532    -5.1690     0.0481 C.ar    
  12 C12            1.0490    -5.8096     1.1643 C.ar    
  13 C13           -0.3164    -5.9557     1.3221 C.ar    
  14 C14           -1.1827    -5.4619     0.3638 C.ar    
  15 C15           -0.6843    -4.8146    -0.7521 C.ar    
  16 F16           -1.5303    -4.3318    -1.6882 F       
  17 N17           -0.8524    -6.6423     2.5188 N.pl3   
  18 O18           -0.0905    -7.0780     3.3634 O.2     
  19 O19           -2.0554    -6.7717     2.6591 O.2     
  20 H20            1.5767     1.7532     0.2070 H       
  21 H21           -0.0102     1.8920    -0.5871 H       
  22 H22            0.0928     1.8137     1.1881 H       
  23 H23            0.0215    -0.4915     0.9277 H       
  24 H24            2.4066    -0.0568    -3.7636 H       
  25 H25            2.2574    -2.5288    -3.8975 H       
  26 H26            2.6203    -5.0559    -0.0740 H       
  27 H27            1.7230    -6.1969     1.9141 H       
  28 H28           -2.2491    -5.5777     0.4893 H       
@<TRIPOS>BOND
   1    1    2 1
   2    1   20 1
   3    1   21 1
   4    1   22 1
   5    2    3 1
   6    2   23 1
   7    3    4 ar
   8    3    8 ar
   9    4    5 ar
  10    5    6 ar
  11    5   24 1
  12    6    7 ar
  13    6   25 1
  14    7    8 ar
  15    7    9 1
  16    9   10 1
  17   10   11 ar
  18   10   15 ar
  19   11   12 ar
  20   11   26 1
  21   12   13 ar
  22   12   27 1
  23   13   14 ar
  24   13   17 1
  25   14   15 ar
  26   14   28 1
  27   15   16 1
  28   17   18 2
  29   17   19 2

#	End of record

