#	Name: ASD02198654
#	Creating user name:	WinNT
#	Creation time:	15. 06. 2019 20:19

#	Modifying user name:	WinNT
#	Modification time:	15. 06. 2019 20:19

#	Program:	/corina/corina34_cracker 3.40 0067  02.08.2006

@<TRIPOS>MOLECULE
ASD02198654
  53   57    0    0    0
SMALL
NO_CHARGES


@<TRIPOS>ATOM
   1 C1             0.0067     1.5061     0.1348 C.2     
   2 C2             0.0730     0.1660    -0.0931 C.2     
   3 N3            -1.0539    -0.5634    -0.2624 N.pl3   
   4 N4            -2.2315    -0.0592    -0.2216 N.2     
   5 C5            -2.4382     1.2241    -0.0090 C.2     
   6 C6            -1.2792     2.1041     0.1931 C.2     
   7 C7            -0.9273    -1.9370    -0.4942 C.ar    
   8 C8            -1.5155    -2.5119    -1.6202 C.ar    
   9 C9            -1.3882    -3.8722    -1.8466 C.ar    
  10 C10           -0.6760    -4.6598    -0.9528 C.ar    
  11 C11           -0.0907    -4.0849     0.1686 C.ar    
  12 C12           -0.2109    -2.7288     0.3940 C.ar    
  13 C13           -3.8110     1.7681     0.0306 C.2     
  14 N14           -4.3725     2.4815     1.0520 N.pl3   
  15 N15           -5.6839     2.8009     0.6787 N.2     
  16 C16           -5.9146     2.3079    -0.5120 C.2     
  17 C17           -4.7643     1.6568    -0.9576 C.2     
  18 C18           -3.7484     2.8303     2.2565 C.ar    
  19 C19           -3.9172     4.1036     2.7843 C.ar    
  20 C20           -3.3005     4.4445     3.9721 C.ar    
  21 C21           -2.5156     3.5194     4.6357 C.ar    
  22 C22           -2.3452     2.2508     4.1125 C.ar    
  23 C23           -2.9642     1.9017     2.9282 C.ar    
  24 O24           -1.4162     3.3023     0.3941 O.2     
  25 O25            1.1345     2.2465     0.3066 O.3     
  26 C26            2.3824     1.5536     0.2365 C.3     
  27 O27           -2.2127    -1.7388    -2.4937 O.3     
  28 C28           -2.7880    -2.3954    -3.6250 C.3     
  29 N29           -0.5475    -6.0367    -1.1815 N.pl3   
  30 N30           -1.0824    -6.7460    -2.2646 N.2     
  31 C31           -0.7520    -8.0055    -2.1321 C.2     
  32 C32            0.0031    -8.1396    -0.9619 C.2     
  33 C33            0.1198    -6.9146    -0.3987 C.2     
  34 H34            1.0361    -0.3206    -0.1396 H       
  35 H35           -1.8432    -4.3198    -2.7178 H       
  36 H36            0.4630    -4.6998     0.8627 H       
  37 H37            0.2452    -2.2842     1.2661 H       
  38 H38           -6.8411     2.3943    -1.0601 H       
  39 H39           -4.6448     1.1506    -1.9041 H       
  40 H40           -4.5298     4.8267     2.2663 H       
  41 H41           -3.4311     5.4347     4.3829 H       
  42 H42           -2.0343     3.7884     5.5644 H       
  43 H43           -1.7310     1.5307     4.6327 H       
  44 H44           -2.8308     0.9108     2.5200 H       
  45 H45            3.1989     2.2592     0.3900 H       
  46 H46            2.4155     0.7858     1.0095 H       
  47 H47            2.4845     1.0873    -0.7434 H       
  48 H48           -1.9990    -2.8635    -4.2135 H       
  49 H49           -3.4887    -3.1580    -3.2850 H       
  50 H50           -3.3153    -1.6656    -4.2394 H       
  51 H51           -1.0172    -8.8041    -2.8092 H       
  52 H52            0.4225    -9.0578    -0.5780 H       
  53 H53            0.6456    -6.6811     0.5153 H       
@<TRIPOS>BOND
   1    1    2 2
   2    1   25 1
   3    1    6 1
   4    2    3 1
   5    2   34 1
   6    3    4 1
   7    3    7 1
   8    4    5 2
   9    5    6 1
  10    5   13 1
  11    6   24 2
  12    7    8 ar
  13    7   12 ar
  14    8    9 ar
  15    8   27 1
  16    9   10 ar
  17    9   35 1
  18   10   11 ar
  19   10   29 1
  20   11   12 ar
  21   11   36 1
  22   12   37 1
  23   13   14 1
  24   13   17 2
  25   14   15 1
  26   14   18 1
  27   15   16 2
  28   16   17 1
  29   16   38 1
  30   17   39 1
  31   18   19 ar
  32   18   23 ar
  33   19   20 ar
  34   19   40 1
  35   20   21 ar
  36   20   41 1
  37   21   22 ar
  38   21   42 1
  39   22   23 ar
  40   22   43 1
  41   23   44 1
  42   25   26 1
  43   26   45 1
  44   26   46 1
  45   26   47 1
  46   27   28 1
  47   28   48 1
  48   28   49 1
  49   28   50 1
  50   29   30 1
  51   29   33 1
  52   30   31 2
  53   31   32 1
  54   31   51 1
  55   32   33 2
  56   32   52 1
  57   33   53 1

#	End of record

