#	Name: ASD06610083
#	Creating user name:	WinNT
#	Creation time:	15. 06. 2019 21:07

#	Modifying user name:	WinNT
#	Modification time:	15. 06. 2019 21:07

#	Program:	/corina/corina34_cracker 3.40 0067  02.08.2006

@<TRIPOS>MOLECULE
ASD06610083
 417  418    0    0    0
SMALL
NO_CHARGES


@<TRIPOS>ATOM
   1 C1            -2.2902    -5.4996     2.9259 C.2     
   2 O2            -2.6655    -6.6333     3.1377 O.2     
   3 N3            -0.0524    -6.4099     3.1550 N.am    
   4 C4            -0.8164    -5.1864     2.8992 C.3     
   5 C5            -5.3655    -3.8122     1.8971 C.2     
   6 O6            -4.7573    -2.9216     1.3423 O.2     
   7 N7            -3.1912    -4.5210     2.7089 N.am    
   8 C8            -4.6238    -4.8267     2.7288 C.3     
   9 C9            -5.1358    -4.7773     4.1698 C.3     
  10 O10           -5.0271    -3.4425     4.6684 O.3     
  11 C11           -8.8994    -3.2230     0.9817 C.2     
  12 O12           -9.3072    -4.1769     1.6099 O.2     
  13 N13           -6.7047    -3.8947     1.7698 N.am    
  14 C14           -7.4257    -2.9085     0.9612 C.3     
  15 C15          -11.8475    -2.1882    -0.9158 C.2     
  16 O16          -11.1803    -1.5913    -1.7341 O.2     
  17 N17           -9.7642    -2.4441     0.3020 N.am    
  18 C18          -11.1968    -2.7498     0.3220 C.3     
  19 C19          -11.8349    -2.1224     1.5630 C.3     
  20 C20          -11.2714    -2.7721     2.8005 C.2     
  21 C21          -10.6848    -2.1348     3.8316 C.2     
  22 N22          -10.3220    -3.0958     4.7364 N.pl3   
  23 C23          -10.6998    -4.2877     4.2263 C.2     
  24 N24          -11.2714    -4.0859     3.0706 N.2     
  25 C25          -15.2654    -1.5553    -2.0475 C.2     
  26 O26          -15.7329    -1.8097    -0.9576 O.2     
  27 N27          -13.1710    -2.3491    -1.1135 N.am    
  28 C28          -13.8036    -1.8032    -2.3169 C.3     
  29 C29          -13.6591    -2.8019    -3.4669 C.3     
  30 C30          -12.2017    -2.9565    -3.8178 C.ar    
  31 C31          -11.4382    -3.9225    -3.1895 C.ar    
  32 C32          -10.1013    -4.0643    -3.5114 C.ar    
  33 C33           -9.5281    -3.2404    -4.4619 C.ar    
  34 C34          -10.2919    -2.2750    -5.0909 C.ar    
  35 C35          -11.6298    -2.1361    -4.7721 C.ar    
  36 C36          -18.2384    -0.8500    -4.0542 C.2     
  37 O37          -17.6534    -1.0591    -5.0957 O.2     
  38 N38          -16.0534    -1.0510    -3.0176 N.am    
  39 C39          -17.4745    -0.8101    -2.7557 C.3     
  40 C40          -17.6474     0.5635    -2.1043 C.3     
  41 C41          -16.9766     0.5638    -0.7292 C.3     
  42 C42          -17.1494     1.9374    -0.0778 C.3     
  43 N43          -16.5072     1.9377     1.2389 N.pl3   
  44 C44          -16.5330     3.0715     2.0161 C.2     
  45 N45          -17.1289     4.1462     1.5814 N.2     
  46 N46          -15.9303     3.0718     3.2517 N.pl3   
  47 C47          -21.5759     0.1214    -5.1860 C.2     
  48 O48          -21.8297     0.6786    -4.1391 O.2     
  49 N49          -19.5718    -0.6533    -4.0579 N.am    
  50 C50          -20.3144    -0.6920    -5.3201 C.3     
  51 C51          -20.6748    -2.1407    -5.6555 C.3     
  52 C52          -19.3949    -2.9379    -5.9143 C.3     
  53 C53          -19.7553    -4.3865    -6.2496 C.3     
  54 C54          -18.4753    -5.1838    -6.5084 C.3     
  55 N55          -18.8214    -6.5746    -6.8304 N.3     
  56 C56          -24.6749     0.5215    -7.0832 C.2     
  57 O57          -24.4082    -0.4035    -7.8209 O.2     
  58 N58          -22.4221     0.2296    -6.2294 N.am    
  59 C59          -23.6485     1.0203    -6.0990 C.3     
  60 C60          -23.3398     2.4912    -6.3855 C.3     
  61 C61          -22.3933     3.0322    -5.3120 C.3     
  62 C62          -22.0892     4.4809    -5.5942 C.2     
  63 O63          -22.5793     5.0250    -6.5553 O.2     
  64 O64          -21.2740     5.1670    -4.7779 O.3     
  65 C65          -27.8565     1.7267    -8.4201 C.2     
  66 O66          -27.7269     2.8146    -7.9000 O.2     
  67 N67          -25.8891     1.1032    -7.1436 N.am    
  68 C68          -26.8869     0.6183    -8.1004 C.3     
  69 C69          -27.6453    -0.5630    -7.4917 C.3     
  70 C70          -26.6827    -1.7337    -7.2824 C.3     
  71 C71          -27.4411    -2.9149    -6.6737 C.3     
  72 N72          -26.5194    -4.0359    -6.4733 N.pl3   
  73 C73          -26.9778    -5.2147    -5.9344 C.2     
  74 N74          -28.2323    -5.3350    -5.6019 N.2     
  75 N75          -26.1128    -6.2667    -5.7463 N.pl3   
  76 C76          -31.2228     1.9259    -9.6955 C.2     
  77 O77          -31.3365     0.7185    -9.6901 O.2     
  78 N78          -28.8678     1.5090    -9.2841 N.am    
  79 C79          -29.8645     2.5556    -9.5239 C.3     
  80 C80          -29.4969     3.3289   -10.7919 C.3     
  81 C81          -29.2673     2.3450   -11.9408 C.3     
  82 C82          -30.5940     1.6827   -12.3180 C.3     
  83 C83          -28.2189     4.1334   -10.5462 C.3     
  84 C84          -34.5151     3.0621   -10.8059 C.2     
  85 O85          -34.0946     4.1567   -11.1157 O.2     
  86 N86          -32.3112     2.7046    -9.8549 N.am    
  87 C87          -33.6243     2.0925   -10.0729 C.3     
  88 C88          -34.2538     1.7417    -8.7233 C.3     
  89 C89          -33.4144     0.6643    -8.0336 C.3     
  90 C90          -34.0345     0.3188    -6.7042 C.2     
  91 O91          -35.0442     0.8770    -6.3453 O.2     
  92 O92          -33.4651    -0.6090    -5.9190 O.3     
  93 C93          -37.9957     3.0258   -12.0539 C.2     
  94 O94          -38.2135     1.9005   -11.6576 O.2     
  95 N95          -35.7791     2.7129   -11.1171 N.am    
  96 C96          -36.6451     3.6555   -11.8297 C.3     
  97 C97          -40.9338     3.7385   -14.1088 C.2     
  98 O98          -40.3630     4.6177   -14.7190 O.2     
  99 N99          -38.9617     3.7132   -12.6950 N.am    
 100 C100         -40.2747     3.1011   -12.9129 C.3     
 101 C101         -41.1485     3.3140   -11.6752 C.3     
 102 C102         -40.5433     2.5618   -10.4882 C.3     
 103 C103         -41.3455     2.8747    -9.2235 C.3     
 104 C104         -40.5882     1.0571   -10.7613 C.3     
 105 C105         -44.2944     3.8122   -15.5456 C.2     
 106 O106         -44.7777     3.2506   -14.5854 O.2     
 107 N107         -42.1577     3.3318   -14.5003 N.am    
 108 C108         -42.7984     3.9515   -15.6629 C.3     
 109 C109         -42.3201     3.2569   -16.9395 C.3     
 110 C110         -40.8215     3.5041   -17.1237 C.3     
 111 C111         -40.3431     2.8095   -18.4002 C.3     
 112 N112         -38.9082     3.0461   -18.5766 N.pl3   
 113 C113         -38.2524     2.5159   -19.6624 C.2     
 114 N114         -36.9757     2.7264   -19.8193 N.2     
 115 N115         -38.9432     1.7635   -20.5826 N.pl3   
 116 C116         -47.1678     4.2264   -17.7671 C.2     
 117 O117         -46.4632     4.3618   -18.7448 O.2     
 118 N118         -45.0952     4.3118   -16.5077 N.am    
 119 C119         -46.5495     4.1764   -16.3937 C.3     
 120 C120         -47.1031     5.3213   -15.5431 C.3     
 121 C121         -46.5718     5.1978   -14.1136 C.3     
 122 C122         -47.1254     6.3427   -13.2630 C.3     
 123 C123         -46.5941     6.2192   -11.8335 C.3     
 124 N124         -47.1257     7.3184   -11.0168 N.3     
 125 C125         -50.5322     4.6412   -19.1353 C.2     
 126 O126         -51.0010     4.9104   -18.0496 O.2     
 127 N127         -48.5040     4.1207   -17.9088 N.am    
 128 C128         -49.1051     4.1693   -19.2438 C.3     
 129 C129         -49.0758     2.7725   -19.8675 C.3     
 130 C130         -47.6242     2.3448   -20.0926 C.3     
 131 C131         -47.5949     0.9480   -20.7163 C.3     
 132 N132         -46.2049     0.5385   -20.9318 N.pl3   
 133 C133         -45.9279    -0.6889   -21.4858 C.2     
 134 N134         -44.6912    -1.0533   -21.6775 N.2     
 135 N135         -46.9554    -1.5320   -21.8375 N.pl3   
 136 C136         -53.4632     4.7144   -21.3187 C.2     
 137 O137         -52.9196     4.0357   -22.1642 O.2     
 138 N138         -51.2876     4.7641   -20.2447 N.am    
 139 C139         -52.6749     5.2228   -20.1392 C.3     
 140 C140         -52.7067     6.7524   -20.1256 C.3     
 141 C141         -52.0134     7.2657   -18.8620 C.3     
 142 C142         -52.0452     8.7953   -18.8485 C.3     
 143 N143         -51.3814     9.2869   -17.6385 N.pl3   
 144 C144         -51.2869    10.6388   -17.4072 C.2     
 145 N145         -50.6963    11.0761   -16.3307 N.2     
 146 N146         -51.8153    11.5295   -18.3115 N.pl3   
 147 C147         -56.7159     5.4275   -22.8268 C.2     
 148 O148         -56.8970     6.3923   -22.1146 O.2     
 149 N149         -54.7721     5.0139   -21.4340 N.am    
 150 C150         -55.5384     4.5197   -22.5806 C.3     
 151 C151         -56.0387     3.1038   -22.2876 C.3     
 152 C152         -54.8437     2.1567   -22.1609 C.3     
 153 C153         -55.3439     0.7408   -21.8679 C.3     
 154 N154         -54.1997    -0.1660   -21.7466 N.pl3   
 155 C155         -54.4045    -1.4996   -21.4827 C.2     
 156 N156         -55.6166    -1.9572   -21.3404 N.2     
 157 N157         -53.3307    -2.3506   -21.3688 N.pl3   
 158 C158         -59.7987     5.2823   -24.7860 C.2     
 159 O159         -59.6332     4.1133   -25.0634 O.2     
 160 N160         -57.5675     5.1672   -23.8385 N.am    
 161 C161         -58.7121     6.0497   -24.0778 C.3     
 162 C162         -58.2729     7.2305   -24.9460 C.3     
 163 C163         -57.2603     8.0807   -24.1762 C.3     
 164 C164         -56.7276     9.1887   -25.0870 C.3     
 165 C165         -57.9414     8.7060   -22.9572 C.3     
 166 C166         -62.8783     6.1066   -26.5747 C.2     
 167 O167         -62.6381     7.2952   -26.5542 O.2     
 168 N168         -60.9542     5.8950   -25.1110 N.am    
 169 C169         -62.0105     5.1490   -25.7994 C.3     
 170 C170         -62.8644     4.4063   -24.7697 C.3     
 171 C171         -62.0115     3.3469   -24.0688 C.3     
 172 C172         -62.8286     2.6898   -22.9546 C.3     
 173 C173         -61.5841     2.2837   -25.0827 C.3     
 174 C174         -66.1338     5.9713   -28.2320 C.2     
 175 O175         -66.3795     4.8772   -27.7822 O.2     
 176 N176         -63.9213     5.6421   -27.2908 N.am    
 177 C177         -64.7649     6.5730   -28.0445 C.3     
 178 C178         -64.1336     6.8403   -29.4123 C.3     
 179 O179         -67.0801     6.6509   -28.8987 O.3     
 180 C180           1.2946    -6.3708     3.1787 C.2     
 181 O181           1.8743    -5.3226     2.9883 O.2     
 182 C182          18.1401   -14.3482     5.1221 C.3     
 183 C183          17.3422   -13.0704     4.8550 C.3     
 184 C184          15.8459   -13.3884     4.8820 C.3     
 185 C185          15.0480   -12.1106     4.6149 C.3     
 186 C186          13.5517   -12.4286     4.6420 C.3     
 187 C187          12.7538   -11.1507     4.3749 C.3     
 188 C188          11.2574   -11.4687     4.4020 C.3     
 189 C189          10.4596   -10.1909     4.1349 C.3     
 190 C190           8.9632   -10.5089     4.1619 C.3     
 191 C191           8.1653    -9.2311     3.8948 C.3     
 192 C192           6.6690    -9.5491     3.9219 C.3     
 193 C193           5.8711    -8.2712     3.6548 C.3     
 194 C194           4.3748    -8.5892     3.6818 C.3     
 195 C195           3.5769    -7.3114     3.4147 C.3     
 196 C196           2.0805    -7.6294     3.4418 C.3     
 197 H197          -0.5159    -7.2483     3.3073 H       
 198 H198          -0.5473    -4.7878     1.9211 H       
 199 H199          -0.5879    -4.4480     3.6678 H       
 200 H200          -2.8910    -3.6143     2.5395 H       
 201 H201          -4.7884    -5.8231     2.3187 H       
 202 H202          -6.1794    -5.0909     4.1955 H       
 203 H203          -4.5399    -5.4466     4.7902 H       
 204 H204          -5.3345    -3.3367     5.5791 H       
 205 H205          -7.1911    -4.6070     2.2135 H       
 206 H206          -7.0610    -2.9437    -0.0653 H       
 207 H207          -7.2611    -1.9121     1.3714 H       
 208 H208          -9.4380    -1.6811    -0.2003 H       
 209 H209         -11.3374    -3.8303     0.3480 H       
 210 H210         -11.6181    -1.0544     1.5825 H       
 211 H211         -12.9140    -2.2736     1.5325 H       
 212 H212         -10.5300    -1.0702     3.9264 H       
 213 H213          -9.8767    -2.9482     5.5854 H       
 214 H214         -10.5564    -5.2484     4.6984 H       
 215 H215         -13.7046    -2.8265    -0.4591 H       
 216 H216         -13.3198    -0.8647    -2.5877 H       
 217 H217         -14.0640    -3.7672    -3.1628 H       
 218 H218         -14.2054    -2.4364    -4.3364 H       
 219 H219         -11.8860    -4.5662    -2.4468 H       
 220 H220          -9.5046    -4.8185    -3.0200 H       
 221 H221          -8.4835    -3.3507    -4.7129 H       
 222 H222          -9.8440    -1.6311    -5.8333 H       
 223 H223         -12.2274    -1.3844    -5.2662 H       
 224 H224         -15.6796    -0.8476    -3.8893 H       
 225 H225         -17.8563    -1.5805    -2.0858 H       
 226 H226         -17.1863     1.3247    -2.7337 H       
 227 H227         -18.7094     0.7806    -1.9906 H       
 228 H228         -17.4377    -0.1973    -0.0998 H       
 229 H229         -15.9145     0.3467    -0.8429 H       
 230 H230         -16.6883     2.6986    -0.7071 H       
 231 H231         -18.2115     2.1546     0.0359 H       
 232 H232         -16.0637     1.1380     1.5624 H       
 233 H233         -17.1472     4.9461     2.1297 H       
 234 H234         -15.4869     2.2721     3.5753 H       
 235 H235         -15.9486     3.8718     3.8001 H       
 236 H236         -20.0397    -0.4860    -3.2248 H       
 237 H237         -19.6976    -0.2772    -6.1174 H       
 238 H238         -21.2158    -2.5834    -4.8192 H       
 239 H239         -21.3025    -2.1620    -6.5464 H       
 240 H240         -18.8539    -2.4952    -6.7506 H       
 241 H241         -18.7672    -2.9166    -5.0234 H       
 242 H242         -20.2963    -4.8293    -5.4133 H       
 243 H243         -20.3830    -4.4079    -7.1405 H       
 244 H244         -17.9344    -4.7411    -7.3447 H       
 245 H245         -17.8477    -5.1625    -5.6175 H       
 246 H246         -17.9923    -7.1223    -7.0056 H       
 247 H247         -19.3792    -6.9873    -6.0978 H       
 248 H248         -22.2191    -0.2161    -7.0667 H       
 249 H249         -24.0384     0.9215    -5.0859 H       
 250 H250         -22.8677     2.5795    -7.3640 H       
 251 H251         -24.2662     3.0654    -6.3759 H       
 252 H252         -22.8653     2.9439    -4.3335 H       
 253 H253         -21.4668     2.4579    -5.3216 H       
 254 H254         -21.1088     6.0936    -4.9997 H       
 255 H255         -26.1024     1.8430    -6.5535 H       
 256 H256         -26.3877     0.2973    -9.0146 H       
 257 H257         -28.0706    -0.2664    -6.5329 H       
 258 H258         -28.4459    -0.8670    -8.1659 H       
 259 H259         -26.2574    -2.0302    -8.2411 H       
 260 H260         -25.8821    -1.4297    -6.6081 H       
 261 H261         -27.8665    -2.6184    -5.7149 H       
 262 H262         -28.2418    -3.2189    -7.3480 H       
 263 H263         -25.5858    -3.9464    -6.7208 H       
 264 H264         -28.5557    -6.1668    -5.2217 H       
 265 H265         -25.1792    -6.1772    -5.9938 H       
 266 H266         -26.4362    -7.0985    -5.3662 H       
 267 H267         -28.9357     0.6594    -9.7471 H       
 268 H268         -29.8853     3.2389    -8.6749 H       
 269 H269         -30.3092     4.0077   -11.0517 H       
 270 H270         -28.8701     2.8799   -12.8034 H       
 271 H271         -28.5558     1.5808   -11.6280 H       
 272 H272         -30.8643     0.9512   -11.5565 H       
 273 H273         -31.3730     2.4422   -12.3850 H       
 274 H274         -30.4898     1.1831   -13.2811 H       
 275 H275         -27.3831     3.4503   -10.3948 H       
 276 H276         -28.0176     4.7681   -11.4092 H       
 277 H277         -28.3455     4.7548    -9.6597 H       
 278 H278         -32.2253     3.6703    -9.8253 H       
 279 H279         -33.5083     1.1856   -10.6664 H       
 280 H280         -34.2883     2.6324    -8.0959 H       
 281 H281         -35.2658     1.3686    -8.8804 H       
 282 H282         -33.3799    -0.2264    -8.6609 H       
 283 H283         -32.4024     1.0375    -7.8764 H       
 284 H284         -33.8993    -0.7967    -5.0755 H       
 285 H285         -36.1154     1.8374   -10.8694 H       
 286 H286         -36.1966     3.9054   -12.7912 H       
 287 H287         -36.7610     4.5623   -11.2362 H       
 288 H288         -38.7875     4.6132   -13.0120 H       
 289 H289         -40.1524     2.0328   -13.0919 H       
 290 H290         -41.1980     4.3780   -11.4440 H       
 291 H291         -42.1526     2.9374   -11.8701 H       
 292 H292         -39.5086     2.8751   -10.3489 H       
 293 H293         -42.3802     2.5615    -9.3628 H       
 294 H294         -40.9144     2.3389    -8.3779 H       
 295 H295         -41.3136     3.9467    -9.0289 H       
 296 H296         -40.0166     0.8342   -11.6623 H       
 297 H297         -40.1570     0.5213    -9.9157 H       
 298 H298         -41.6228     0.7438   -10.9006 H       
 299 H299         -42.6142     2.6287   -14.0123 H       
 300 H300         -42.5339     5.0081   -15.7033 H       
 301 H301         -42.5047     2.1855   -16.8612 H       
 302 H302         -42.8624     3.6574   -17.7960 H       
 303 H303         -40.6369     4.5755   -17.2020 H       
 304 H304         -40.2792     3.1036   -16.2671 H       
 305 H305         -40.5278     1.7381   -18.3219 H       
 306 H306         -40.8854     3.2100   -19.2568 H       
 307 H307         -38.4208     3.5770   -17.9273 H       
 308 H308         -36.5130     2.3523   -20.5853 H       
 309 H309         -39.8933     1.6068   -20.4658 H       
 310 H310         -38.4805     1.3894   -21.3487 H       
 311 H311         -44.7086     4.7610   -17.2756 H       
 312 H312         -46.7898     3.2238   -15.9215 H       
 313 H313         -46.7872     6.2745   -15.9670 H       
 314 H314         -48.1919     5.2718   -15.5315 H       
 315 H315         -46.8876     4.2446   -13.6897 H       
 316 H316         -45.4830     5.2473   -14.1252 H       
 317 H317         -46.8096     7.2959   -13.6869 H       
 318 H318         -48.2142     6.2931   -13.2515 H       
 319 H319         -46.9100     5.2659   -11.4096 H       
 320 H320         -45.5053     6.2687   -11.8451 H       
 321 H321         -48.1342     7.3331   -11.0426 H       
 322 H322         -46.7890     7.2591   -10.0675 H       
 323 H323         -49.0675     4.0124   -17.1267 H       
 324 H324         -48.5410     4.8594   -19.8714 H       
 325 H325         -49.5633     2.0649   -19.1969 H       
 326 H326         -49.6017     2.7898   -20.8221 H       
 327 H327         -47.1367     3.0525   -20.7632 H       
 328 H328         -47.0983     2.3276   -19.1380 H       
 329 H329         -48.0823     0.2404   -20.0457 H       
 330 H330         -48.1207     0.9653   -21.6709 H       
 331 H331         -45.4800     1.1333   -20.6836 H       
 332 H332         -44.4958    -1.9193   -22.0684 H       
 333 H333         -47.8757    -1.2608   -21.6948 H       
 334 H334         -46.7599    -2.3980   -22.2284 H       
 335 H335         -50.9126     4.5488   -21.1130 H       
 336 H336         -53.1143     4.8421   -19.2172 H       
 337 H337         -52.1883     7.1344   -21.0051 H       
 338 H338         -53.7416     7.0944   -20.1367 H       
 339 H339         -52.5318     6.8837   -17.9825 H       
 340 H340         -50.9785     6.9237   -18.8509 H       
 341 H341         -51.5268     9.1773   -19.7279 H       
 342 H342         -53.0801     9.1374   -18.8596 H       
 343 H343         -51.0085     8.6585   -17.0005 H       
 344 H344         -50.6296    12.0300   -16.1676 H       
 345 H345         -52.2548    11.2040   -19.1126 H       
 346 H346         -51.7486    12.4833   -18.1483 H       
 347 H347         -55.2069     5.5567   -20.7577 H       
 348 H348         -54.9006     4.5041   -23.4644 H       
 349 H349         -56.6030     3.1035   -21.3551 H       
 350 H350         -56.6820     2.7700   -23.1017 H       
 351 H351         -54.2794     2.1570   -23.0934 H       
 352 H352         -54.2003     2.4905   -21.3468 H       
 353 H353         -55.9082     0.7405   -20.9354 H       
 354 H354         -55.9873     0.4070   -22.6820 H       
 355 H355         -53.2976     0.1745   -21.8524 H       
 356 H356         -55.7611    -2.8981   -21.1542 H       
 357 H357         -52.4286    -2.0101   -21.4746 H       
 358 H358         -53.4752    -3.2915   -21.1826 H       
 359 H359         -57.4226     4.3956   -24.4081 H       
 360 H360         -59.0907     6.4202   -23.1252 H       
 361 H361         -57.8129     6.8574   -25.8611 H       
 362 H362         -59.1414     7.8391   -25.1980 H       
 363 H363         -56.4331     7.4516   -23.8474 H       
 364 H364         -57.5548     9.8178   -25.4158 H       
 365 H365         -56.0062     9.7944   -24.5386 H       
 366 H366         -56.2424     8.7433   -25.9555 H       
 367 H367         -58.3209     7.9166   -22.3083 H       
 368 H368         -57.2200     9.3117   -22.4088 H       
 369 H369         -58.7686     9.3350   -23.2860 H       
 370 H370         -61.0865     6.8300   -24.8891 H       
 371 H371         -61.5605     4.4304   -26.4844 H       
 372 H372         -63.2423     5.1146   -24.0324 H       
 373 H373         -63.7023     3.9237   -25.2728 H       
 374 H374         -61.1264     3.8177   -23.6411 H       
 375 H375         -63.7137     2.2190   -23.3823 H       
 376 H376         -62.2210     1.9351   -22.4552 H       
 377 H377         -63.1331     3.4472   -22.2323 H       
 378 H378         -62.4692     1.8129   -25.5104 H       
 379 H379         -61.0020     2.7519   -25.8765 H       
 380 H380         -60.9765     1.5290   -24.5833 H       
 381 H381         -64.1135     4.6915   -27.3072 H       
 382 H382         -64.8522     7.5104   -27.4952 H       
 383 H383         -64.7612     7.5329   -29.9731 H       
 384 H384         -63.1435     7.2755   -29.2767 H       
 385 H385         -64.0463     5.9028   -29.9616 H       
 386 H386         -67.9426     6.2241   -28.9934 H       
 387 H387          19.2062   -14.1217     5.1028 H       
 388 H388          17.8710   -14.7468     6.1003 H       
 389 H389          17.9117   -15.0866     4.3535 H       
 390 H390          17.5707   -12.3320     5.6236 H       
 391 H391          17.6114   -12.6718     3.8768 H       
 392 H392          15.6174   -14.1268     4.1134 H       
 393 H393          15.5768   -13.7870     5.8602 H       
 394 H394          15.2765   -11.3722     5.3835 H       
 395 H395          15.3171   -11.7120     3.6368 H       
 396 H396          13.3232   -13.1669     3.8734 H       
 397 H397          13.2826   -12.8272     5.6202 H       
 398 H398          12.9823   -10.4124     5.1435 H       
 399 H399          13.0229   -10.7521     3.3967 H       
 400 H400          11.0290   -12.2071     3.6334 H       
 401 H401          10.9883   -11.8673     5.3801 H       
 402 H402          10.6880    -9.4525     4.9035 H       
 403 H403          10.7287    -9.7923     3.1567 H       
 404 H404           8.7347   -11.2473     3.3933 H       
 405 H405           8.6941   -10.9075     5.1401 H       
 406 H406           8.3938    -8.4927     4.6634 H       
 407 H407           8.4344    -8.8325     2.9167 H       
 408 H408           6.4405   -10.2874     3.1533 H       
 409 H409           6.3999    -9.9477     4.9000 H       
 410 H410           6.0996    -7.5329     4.4234 H       
 411 H411           6.1402    -7.8726     2.6766 H       
 412 H412           4.1463    -9.3276     2.9132 H       
 413 H413           4.1056    -8.9878     4.6600 H       
 414 H414           3.8053    -6.5730     4.1833 H       
 415 H415           3.8460    -6.9128     2.4366 H       
 416 H416           1.8114    -8.0280     4.4200 H       
 417 H417           1.8520    -8.3678     2.6732 H       
@<TRIPOS>BOND
   1    1    2 2
   2    1    4 1
   3    1    7 am
   4    3    4 1
   5    3  180 am
   6    3  197 1
   7    4  198 1
   8    4  199 1
   9    5    6 2
  10    5    8 1
  11    5   13 am
  12    7    8 1
  13    7  200 1
  14    8    9 1
  15    8  201 1
  16    9   10 1
  17    9  202 1
  18    9  203 1
  19   10  204 1
  20   11   12 2
  21   11   14 1
  22   11   17 am
  23   13   14 1
  24   13  205 1
  25   14  206 1
  26   14  207 1
  27   15   16 2
  28   15   18 1
  29   15   27 am
  30   17   18 1
  31   17  208 1
  32   18   19 1
  33   18  209 1
  34   19   20 1
  35   19  210 1
  36   19  211 1
  37   20   21 2
  38   20   24 1
  39   21   22 1
  40   21  212 1
  41   22   23 1
  42   22  213 1
  43   23   24 2
  44   23  214 1
  45   25   26 2
  46   25   28 1
  47   25   38 am
  48   27   28 1
  49   27  215 1
  50   28   29 1
  51   28  216 1
  52   29   30 1
  53   29  217 1
  54   29  218 1
  55   30   31 ar
  56   30   35 ar
  57   31   32 ar
  58   31  219 1
  59   32   33 ar
  60   32  220 1
  61   33   34 ar
  62   33  221 1
  63   34   35 ar
  64   34  222 1
  65   35  223 1
  66   36   37 2
  67   36   39 1
  68   36   49 am
  69   38   39 1
  70   38  224 1
  71   39   40 1
  72   39  225 1
  73   40   41 1
  74   40  226 1
  75   40  227 1
  76   41   42 1
  77   41  228 1
  78   41  229 1
  79   42   43 1
  80   42  230 1
  81   42  231 1
  82   43   44 1
  83   43  232 1
  84   44   45 2
  85   44   46 1
  86   45  233 1
  87   46  234 1
  88   46  235 1
  89   47   48 2
  90   47   50 1
  91   47   58 am
  92   49   50 1
  93   49  236 1
  94   50   51 1
  95   50  237 1
  96   51   52 1
  97   51  238 1
  98   51  239 1
  99   52   53 1
 100   52  240 1
 101   52  241 1
 102   53   54 1
 103   53  242 1
 104   53  243 1
 105   54   55 1
 106   54  244 1
 107   54  245 1
 108   55  246 1
 109   55  247 1
 110   56   57 2
 111   56   59 1
 112   56   67 am
 113   58   59 1
 114   58  248 1
 115   59   60 1
 116   59  249 1
 117   60   61 1
 118   60  250 1
 119   60  251 1
 120   61   62 1
 121   61  252 1
 122   61  253 1
 123   62   63 2
 124   62   64 1
 125   64  254 1
 126   65   66 2
 127   65   68 1
 128   65   78 am
 129   67   68 1
 130   67  255 1
 131   68   69 1
 132   68  256 1
 133   69   70 1
 134   69  257 1
 135   69  258 1
 136   70   71 1
 137   70  259 1
 138   70  260 1
 139   71   72 1
 140   71  261 1
 141   71  262 1
 142   72   73 1
 143   72  263 1
 144   73   74 2
 145   73   75 1
 146   74  264 1
 147   75  265 1
 148   75  266 1
 149   76   77 2
 150   76   79 1
 151   76   86 am
 152   78   79 1
 153   78  267 1
 154   79   80 1
 155   79  268 1
 156   80   81 1
 157   80   83 1
 158   80  269 1
 159   81   82 1
 160   81  270 1
 161   81  271 1
 162   82  272 1
 163   82  273 1
 164   82  274 1
 165   83  275 1
 166   83  276 1
 167   83  277 1
 168   84   85 2
 169   84   87 1
 170   84   95 am
 171   86   87 1
 172   86  278 1
 173   87   88 1
 174   87  279 1
 175   88   89 1
 176   88  280 1
 177   88  281 1
 178   89   90 1
 179   89  282 1
 180   89  283 1
 181   90   91 2
 182   90   92 1
 183   92  284 1
 184   93   94 2
 185   93   96 1
 186   93   99 am
 187   95   96 1
 188   95  285 1
 189   96  286 1
 190   96  287 1
 191   97   98 2
 192   97  100 1
 193   97  107 am
 194   99  100 1
 195   99  288 1
 196  100  101 1
 197  100  289 1
 198  101  102 1
 199  101  290 1
 200  101  291 1
 201  102  103 1
 202  102  104 1
 203  102  292 1
 204  103  293 1
 205  103  294 1
 206  103  295 1
 207  104  296 1
 208  104  297 1
 209  104  298 1
 210  105  106 2
 211  105  108 1
 212  105  118 am
 213  107  108 1
 214  107  299 1
 215  108  109 1
 216  108  300 1
 217  109  110 1
 218  109  301 1
 219  109  302 1
 220  110  111 1
 221  110  303 1
 222  110  304 1
 223  111  112 1
 224  111  305 1
 225  111  306 1
 226  112  113 1
 227  112  307 1
 228  113  114 2
 229  113  115 1
 230  114  308 1
 231  115  309 1
 232  115  310 1
 233  116  117 2
 234  116  119 1
 235  116  127 am
 236  118  119 1
 237  118  311 1
 238  119  120 1
 239  119  312 1
 240  120  121 1
 241  120  313 1
 242  120  314 1
 243  121  122 1
 244  121  315 1
 245  121  316 1
 246  122  123 1
 247  122  317 1
 248  122  318 1
 249  123  124 1
 250  123  319 1
 251  123  320 1
 252  124  321 1
 253  124  322 1
 254  125  126 2
 255  125  128 1
 256  125  138 am
 257  127  128 1
 258  127  323 1
 259  128  129 1
 260  128  324 1
 261  129  130 1
 262  129  325 1
 263  129  326 1
 264  130  131 1
 265  130  327 1
 266  130  328 1
 267  131  132 1
 268  131  329 1
 269  131  330 1
 270  132  133 1
 271  132  331 1
 272  133  134 2
 273  133  135 1
 274  134  332 1
 275  135  333 1
 276  135  334 1
 277  136  137 2
 278  136  139 1
 279  136  149 am
 280  138  139 1
 281  138  335 1
 282  139  140 1
 283  139  336 1
 284  140  141 1
 285  140  337 1
 286  140  338 1
 287  141  142 1
 288  141  339 1
 289  141  340 1
 290  142  143 1
 291  142  341 1
 292  142  342 1
 293  143  144 1
 294  143  343 1
 295  144  145 2
 296  144  146 1
 297  145  344 1
 298  146  345 1
 299  146  346 1
 300  147  148 2
 301  147  150 1
 302  147  160 am
 303  149  150 1
 304  149  347 1
 305  150  151 1
 306  150  348 1
 307  151  152 1
 308  151  349 1
 309  151  350 1
 310  152  153 1
 311  152  351 1
 312  152  352 1
 313  153  154 1
 314  153  353 1
 315  153  354 1
 316  154  155 1
 317  154  355 1
 318  155  156 2
 319  155  157 1
 320  156  356 1
 321  157  357 1
 322  157  358 1
 323  158  159 2
 324  158  161 1
 325  158  168 am
 326  160  161 1
 327  160  359 1
 328  161  162 1
 329  161  360 1
 330  162  163 1
 331  162  361 1
 332  162  362 1
 333  163  164 1
 334  163  165 1
 335  163  363 1
 336  164  364 1
 337  164  365 1
 338  164  366 1
 339  165  367 1
 340  165  368 1
 341  165  369 1
 342  166  167 2
 343  166  169 1
 344  166  176 am
 345  168  169 1
 346  168  370 1
 347  169  170 1
 348  169  371 1
 349  170  171 1
 350  170  372 1
 351  170  373 1
 352  171  172 1
 353  171  173 1
 354  171  374 1
 355  172  375 1
 356  172  376 1
 357  172  377 1
 358  173  378 1
 359  173  379 1
 360  173  380 1
 361  174  175 2
 362  174  177 1
 363  174  179 1
 364  176  177 1
 365  176  381 1
 366  177  178 1
 367  177  382 1
 368  178  383 1
 369  178  384 1
 370  178  385 1
 371  179  386 1
 372  180  181 2
 373  180  196 1
 374  182  183 1
 375  182  387 1
 376  182  388 1
 377  182  389 1
 378  183  184 1
 379  183  390 1
 380  183  391 1
 381  184  185 1
 382  184  392 1
 383  184  393 1
 384  185  186 1
 385  185  394 1
 386  185  395 1
 387  186  187 1
 388  186  396 1
 389  186  397 1
 390  187  188 1
 391  187  398 1
 392  187  399 1
 393  188  189 1
 394  188  400 1
 395  188  401 1
 396  189  190 1
 397  189  402 1
 398  189  403 1
 399  190  191 1
 400  190  404 1
 401  190  405 1
 402  191  192 1
 403  191  406 1
 404  191  407 1
 405  192  193 1
 406  192  408 1
 407  192  409 1
 408  193  194 1
 409  193  410 1
 410  193  411 1
 411  194  195 1
 412  194  412 1
 413  194  413 1
 414  195  196 1
 415  195  414 1
 416  195  415 1
 417  196  416 1
 418  196  417 1

#	End of record

