#	Name: ASD03240152
#	Creating user name:	WinNT
#	Creation time:	15. 06. 2019 20:34

#	Modifying user name:	WinNT
#	Modification time:	15. 06. 2019 20:34

#	Program:	/corina/corina34_cracker 3.40 0067  02.08.2006

@<TRIPOS>MOLECULE
ASD03240152
  69   75    0    0    0
SMALL
NO_CHARGES


@<TRIPOS>ATOM
   1 C1            -0.0168     1.3906     0.0097 C.ar    
   2 C2             0.0021    -0.0041     0.0020 C.ar    
   3 C3             1.1921     2.0894     0.0019 C.ar    
   4 C4             2.3779     1.3577    -0.0134 C.ar    
   5 C5             2.3110    -0.0456    -0.0203 C.ar    
   6 N6             1.1390    -0.6663    -0.0124 N.ar    
   7 C7             3.5614    -0.8395    -0.0365 C.ar    
   8 C8             3.6894     2.0491    -0.0227 C.ar    
   9 C9             3.9379     3.0656    -0.9436 C.ar    
  10 C10            5.1603     3.7060    -0.9473 C.ar    
  11 C11            6.1383     3.3406    -0.0397 C.ar    
  12 C12            5.8973     2.3326     0.8765 C.ar    
  13 C13            4.6766     1.6891     0.8933 C.ar    
  14 C14            3.6294    -2.0526     0.6483 C.ar    
  15 C15            4.7969    -2.7879     0.6291 C.ar    
  16 C16            5.8986    -2.3237    -0.0672 C.ar    
  17 C17            5.8372    -1.1212    -0.7483 C.ar    
  18 C18            4.6735    -0.3797    -0.7413 C.ar    
  19 C19            7.1709    -3.1312    -0.0832 C.3     
  20 C20           -1.3068     2.1233     0.0198 C.2     
  21 N21            7.1479    -4.0586    -1.2223 N.3     
  22 C22            8.4593    -4.6914    -1.4122 C.3     
  23 C23            8.4398    -5.5356    -2.6886 C.3     
  24 C24            7.3490    -6.6037    -2.5716 C.3     
  25 C25            6.0009    -5.9205    -2.3260 C.3     
  26 C26            6.0911    -5.0652    -1.0602 C.3     
  27 N27            7.2865    -7.3777    -3.8139 N.pl3   
  28 C28            7.4865    -8.7217    -3.9168 C.ar    
  29 C29            7.3341    -9.0503    -5.2821 C.ar    
  30 C30            7.0305    -7.8036    -5.9729 C.2     
  31 N31            7.0062    -6.8544    -5.0808 N.2     
  32 N32            7.7713    -9.6943    -3.0556 N.ar    
  33 C33            7.9072   -10.9342    -3.4708 C.ar    
  34 N34            7.7721   -11.2801    -4.7400 N.ar    
  35 C35            7.4893   -10.3839    -5.6688 C.ar    
  36 C36            7.3374   -10.7907    -7.1119 C.3     
  37 N37           -2.5012     1.5726     0.0225 N.2     
  38 N38           -3.4309     2.6251     0.0326 N.pl3   
  39 C39           -2.7176     3.7657     0.0354 C.2     
  40 N40           -1.4481     3.4557     0.0335 N.2     
  41 H41           -0.9306    -0.5486     0.0084 H       
  42 H42            1.2076     3.1693     0.0072 H       
  43 H43            3.1754     3.3512    -1.6531 H       
  44 H44            5.3540     4.4937    -1.6603 H       
  45 H45            7.0937     3.8440    -0.0467 H       
  46 H46            6.6645     2.0515     1.5828 H       
  47 H47            4.4894     0.9025     1.6093 H       
  48 H48            2.7702    -2.4156     1.1927 H       
  49 H49            4.8508    -3.7274     1.1589 H       
  50 H50            6.7007    -0.7638    -1.2897 H       
  51 H51            4.6267     0.5588    -1.2736 H       
  52 H52            8.0254    -2.4611    -0.1775 H       
  53 H53            7.2537    -3.6973     0.8445 H       
  54 H54            9.2254    -3.9208    -1.4981 H       
  55 H55            8.6814    -5.3304    -0.5575 H       
  56 H56            8.2315    -4.8949    -3.5454 H       
  57 H57            9.4085    -6.0176    -2.8209 H       
  58 H58            7.5777    -7.2682    -1.7385 H       
  59 H59            5.7541    -5.2859    -3.1772 H       
  60 H60            5.2270    -6.6775    -2.1993 H       
  61 H61            6.3243    -5.7024    -0.2072 H       
  62 H62            5.1371    -4.5660    -0.8904 H       
  63 H63            6.8533    -7.6882    -7.0320 H       
  64 H64            8.1390   -11.7010    -2.7465 H       
  65 H65            6.2970   -11.0492    -7.3089 H       
  66 H66            7.6345    -9.9631    -7.7559 H       
  67 H67            7.9709   -11.6543    -7.3145 H       
  68 H68           -4.3976     2.5453     0.0367 H       
  69 H69           -3.1244     4.7661     0.0427 H       
@<TRIPOS>BOND
   1    1    2 ar
   2    1    3 ar
   3    1   20 1
   4    2    6 ar
   5    2   41 1
   6    3    4 ar
   7    3   42 1
   8    4    5 ar
   9    4    8 1
  10    5    6 ar
  11    5    7 1
  12    7   14 ar
  13    7   18 ar
  14    8    9 ar
  15    8   13 ar
  16    9   10 ar
  17    9   43 1
  18   10   11 ar
  19   10   44 1
  20   11   12 ar
  21   11   45 1
  22   12   13 ar
  23   12   46 1
  24   13   47 1
  25   14   15 ar
  26   14   48 1
  27   15   16 ar
  28   15   49 1
  29   16   17 ar
  30   16   19 1
  31   17   18 ar
  32   17   50 1
  33   18   51 1
  34   19   21 1
  35   19   52 1
  36   19   53 1
  37   20   37 2
  38   20   40 1
  39   21   22 1
  40   21   26 1
  41   22   23 1
  42   22   54 1
  43   22   55 1
  44   23   24 1
  45   23   56 1
  46   23   57 1
  47   24   25 1
  48   24   27 1
  49   24   58 1
  50   25   26 1
  51   25   59 1
  52   25   60 1
  53   26   61 1
  54   26   62 1
  55   27   28 1
  56   27   31 1
  57   28   29 ar
  58   28   32 ar
  59   29   30 1
  60   29   35 ar
  61   30   31 2
  62   30   63 1
  63   32   33 ar
  64   33   34 ar
  65   33   64 1
  66   34   35 ar
  67   35   36 1
  68   36   65 1
  69   36   66 1
  70   36   67 1
  71   37   38 1
  72   38   39 1
  73   38   68 1
  74   39   40 2
  75   39   69 1

#	End of record

