#	Name: ASD01478061
#	Creating user name:	WinNT
#	Creation time:	15. 06. 2019 19:21

#	Modifying user name:	WinNT
#	Modification time:	15. 06. 2019 19:21

#	Program:	/corina/corina34_cracker 3.40 0067  02.08.2006

@<TRIPOS>MOLECULE
ASD01478061
  45   44    0    0    0
SMALL
NO_CHARGES


@<TRIPOS>ATOM
   1 C1            -0.0157     1.3058     0.0092 C.2     
   2 C2             0.0021    -0.0041     0.0020 C.2     
   3 C3             1.3172    -0.7397    -0.0145 C.3     
   4 C4             1.3983    -1.6114    -1.2693 C.3     
   5 C5             2.6759    -2.4519    -1.2247 C.3     
   6 O6             2.7516    -3.2661    -2.3966 O.3     
   7 C7             3.9143    -4.0949    -2.4544 C.3     
   8 C8             3.8907    -4.9055    -3.7247 C.2     
   9 C9             4.9746    -5.0147    -4.4522 C.2     
  10 O10            2.3906     0.2036    -0.0197 O.3     
  11 Si11           2.9032     0.6335     1.4678 Si      
  12 C12            1.4950     1.4082     2.4100 C.3     
  13 C13            3.5031    -0.8770     2.3786 C.3     
  14 C14            4.2968     1.8602     1.3140 C.3     
  15 C15            3.8041     3.1007     0.5660 C.3     
  16 C16            4.7776     2.2635     2.7094 C.3     
  17 C17            5.4532     1.2239     0.5402 C.3     
  18 H18            0.9122     1.8585     0.0033 H       
  19 H19           -0.9582     1.8330     0.0166 H       
  20 H20           -0.9258    -0.5567     0.0079 H       
  21 H21            1.3919    -1.3703     0.8714 H       
  22 H22            0.5310    -2.2705    -1.3104 H       
  23 H23            1.4129    -0.9746    -2.1538 H       
  24 H24            3.5431    -1.7929    -1.1835 H       
  25 H25            2.6612    -3.0888    -0.3402 H       
  26 H26            4.8072    -3.4700    -2.4388 H       
  27 H27            3.9253    -4.7659    -1.5955 H       
  28 H28            2.9801    -5.3964    -4.0352 H       
  29 H29            5.8851    -4.5239    -4.1417 H       
  30 H30            4.9577    -5.5956    -5.3625 H       
  31 H31            0.6797     0.6905     2.5000 H       
  32 H32            1.8376     1.6955     3.4041 H       
  33 H33            1.1440     2.2920     1.8772 H       
  34 H34            4.3269    -1.3303     1.8273 H       
  35 H35            3.8456    -0.5897     3.3727 H       
  36 H36            2.6877    -1.5947     2.4686 H       
  37 H37            2.9803     3.5540     1.1173 H       
  38 H38            4.6195     3.8184     0.4760 H       
  39 H39            3.4616     2.8134    -0.4280 H       
  40 H40            5.1286     1.3798     3.2422 H       
  41 H41            5.5930     2.9812     2.6194 H       
  42 H42            3.9537     2.7168     3.2606 H       
  43 H43            5.1107     0.9366    -0.4539 H       
  44 H44            6.2686     1.9417     0.4502 H       
  45 H45            5.8042     0.3402     1.0731 H       
@<TRIPOS>BOND
   1    1    2 2
   2    1   18 1
   3    1   19 1
   4    2    3 1
   5    2   20 1
   6    3    4 1
   7    3   10 1
   8    3   21 1
   9    4    5 1
  10    4   22 1
  11    4   23 1
  12    5    6 1
  13    5   24 1
  14    5   25 1
  15    6    7 1
  16    7    8 1
  17    7   26 1
  18    7   27 1
  19    8    9 2
  20    8   28 1
  21    9   29 1
  22    9   30 1
  23   10   11 1
  24   11   12 1
  25   11   13 1
  26   11   14 1
  27   12   31 1
  28   12   32 1
  29   12   33 1
  30   13   34 1
  31   13   35 1
  32   13   36 1
  33   14   15 1
  34   14   17 1
  35   14   16 1
  36   15   37 1
  37   15   38 1
  38   15   39 1
  39   16   40 1
  40   16   41 1
  41   16   42 1
  42   17   43 1
  43   17   44 1
  44   17   45 1

#	End of record

