#	Name: ASD09116126
#	Creating user name:	WinNT
#	Creation time:	15. 06. 2019 21:20

#	Modifying user name:	WinNT
#	Modification time:	15. 06. 2019 21:20

#	Program:	/corina/corina34_cracker 3.40 0067  02.08.2006

@<TRIPOS>MOLECULE
ASD09116126
  61   66    0    0    0
SMALL
NO_CHARGES


@<TRIPOS>ATOM
   1 N1            -0.1027     1.6520     0.3259 N.2     
   2 C2            -0.1249     0.1844     0.4572 C.3     
   3 C3             1.1546     1.9982     0.2694 C.2     
   4 N4             1.9915     0.9434     0.3464 N.2     
   5 C5             1.3451    -0.1875     0.4604 C.2     
   6 N6             1.5821     3.3047     0.1438 N.pl3   
   7 C7             2.9493     3.6028     0.2028 C.ar    
   8 C8             3.4617     4.6621    -0.5345 C.ar    
   9 C9             3.7921     2.8429     1.0030 C.ar    
  10 C10            5.1399     3.1378     1.0610 C.ar    
  11 C11            5.6519     4.1931     0.3205 C.ar    
  12 C12            4.8097     4.9557    -0.4755 C.ar    
  13 O13            6.9791     4.4832     0.3784 O.3     
  14 C14            7.7739     3.7082     1.2784 C.3     
  15 C15            9.2376     3.7468     0.8307 C.3     
  16 C16           10.0906     2.9644     1.8332 C.3     
  17 N17            1.8788    -1.4346     0.5604 N.pl3   
  18 C18           -0.7793    -0.2236     1.7519 C.ar    
  19 N19           -0.4743     0.4293     2.8554 N.ar    
  20 N20           -1.6453    -1.2216     1.7450 N.ar    
  21 C21           -2.2310    -1.5988     2.8601 C.ar    
  22 C22           -1.9289    -0.9368     4.0458 C.ar    
  23 C23           -1.0271     0.1021     4.0167 C.ar    
  24 C24           -3.2536    -2.6844     3.1933 C.3     
  25 C25           -4.5583    -1.8956     3.5323 C.3     
  26 C26           -4.2208    -1.1596     4.8512 C.3     
  27 C27           -2.7497    -1.5864     5.1572 C.3     
  28 C28           -2.7779    -3.0731     4.6420 C.3     
  29 C29            9.9111     3.5674     3.2283 C.3     
  30 N30            8.4946     3.5062     3.6108 N.3     
  31 C31            7.6615     4.2896     2.6895 C.3     
  32 C32            8.3045     3.9491     4.9985 C.3     
  33 H33           -0.6371    -0.2698    -0.3910 H       
  34 H34            0.9357     4.0162     0.0147 H       
  35 H35            2.8062     5.2559    -1.1542 H       
  36 H36            3.3935     2.0217     1.5802 H       
  37 H37            5.7956     2.5469     1.6833 H       
  38 H38            5.2091     5.7772    -1.0518 H       
  39 H39            7.4209     2.6769     1.2798 H       
  40 H40            9.3287     3.2940    -0.1566 H       
  41 H41            9.5792     4.7812     0.7910 H       
  42 H42            9.7742     1.9214     1.8441 H       
  43 H43           11.1396     3.0242     1.5431 H       
  44 H44            2.8416    -1.5523     0.5506 H       
  45 H45            1.2966    -2.2062     0.6414 H       
  46 H46           -0.7712     0.6364     4.9198 H       
  47 H47           -3.3535    -3.4913     2.4674 H       
  48 H48           -4.7876    -1.1795     2.7432 H       
  49 H49           -5.3919    -2.5820     3.6806 H       
  50 H50           -4.2847    -0.0803     4.7135 H       
  51 H51           -4.8868    -1.4838     5.6508 H       
  52 H52           -2.4009    -1.4172     6.1760 H       
  53 H53           -3.5122    -3.6812     5.1704 H       
  54 H54           -1.7892    -3.5318     4.6448 H       
  55 H55           10.5060     3.0036     3.9468 H       
  56 H56           10.2405     4.6064     3.2200 H       
  57 H57            8.0015     5.3252     2.6838 H       
  58 H58            6.6226     4.2504     3.0168 H       
  59 H59            8.7143     4.9519     5.1192 H       
  60 H60            7.2402     3.9609     5.2335 H       
  61 H61            8.8178     3.2632     5.6723 H       
@<TRIPOS>BOND
   1    1    2 1
   2    1    3 2
   3    2   18 1
   4    2    5 1
   5    2   33 1
   6    3    4 1
   7    3    6 1
   8    4    5 2
   9    5   17 1
  10    6    7 1
  11    6   34 1
  12    7    8 ar
  13    7    9 ar
  14    8   12 ar
  15    8   35 1
  16    9   10 ar
  17    9   36 1
  18   10   11 ar
  19   10   37 1
  20   11   12 ar
  21   11   13 1
  22   12   38 1
  23   13   14 1
  24   14   15 1
  25   14   31 1
  26   14   39 1
  27   15   16 1
  28   15   40 1
  29   15   41 1
  30   16   29 1
  31   16   42 1
  32   16   43 1
  33   17   44 1
  34   17   45 1
  35   18   19 ar
  36   18   20 ar
  37   19   23 ar
  38   20   21 ar
  39   21   22 ar
  40   21   24 1
  41   22   23 ar
  42   22   27 1
  43   23   46 1
  44   24   25 1
  45   24   28 1
  46   24   47 1
  47   25   26 1
  48   25   48 1
  49   25   49 1
  50   26   27 1
  51   26   50 1
  52   26   51 1
  53   27   28 1
  54   27   52 1
  55   28   53 1
  56   28   54 1
  57   29   30 1
  58   29   55 1
  59   29   56 1
  60   30   31 1
  61   30   32 1
  62   31   57 1
  63   31   58 1
  64   32   59 1
  65   32   60 1
  66   32   61 1

#	End of record

