#	Name: ASD00960079
#	Creating user name:	WinNT
#	Creation time:	15. 06. 2019 18:53

#	Modifying user name:	WinNT
#	Modification time:	15. 06. 2019 18:53

#	Program:	/corina/corina34_cracker 3.40 0067  02.08.2006

@<TRIPOS>MOLECULE
ASD00960079
  40   42    0    0    0
SMALL
NO_CHARGES


@<TRIPOS>ATOM
   1 C1            -0.0187     1.5258     0.0104 C.3     
   2 C2            -0.7939     2.0498     1.2396 C.3     
   3 O3            -2.1388     2.2699     0.7613 O.3     
   4 C4            -1.9852     2.8481    -0.5533 C.3     
   5 C5            -3.2663     2.6636    -1.3692 C.3     
   6 C6            -0.7904     1.0203     2.3401 C.2     
   7 C7             0.1945     0.8564     3.2628 C.2     
   8 N8            -1.7643     0.1205     2.5697 N.pl3   
   9 C9            -1.4026    -0.6459     3.6580 C.2     
  10 C10           -0.1768    -0.1953     4.1023 C.2     
  11 N11           -2.9849    -0.1399     1.9337 N.2     
  12 C12           -3.7746    -1.0847     2.3504 C.2     
  13 N13           -3.4678    -1.8803     3.4288 N.am    
  14 C14           -2.3109    -1.7024     4.1038 C.2     
  15 O15           -4.3194     3.4310    -0.7825 O.3     
  16 O16           -2.0317    -2.4034     5.0597 O.2     
  17 C17            0.6100    -0.7344     5.2691 C.3     
  18 C18           -0.8173     2.0630    -1.1982 C.3     
  19 C19            0.0021    -0.0041     0.0020 C.3     
  20 N20           -4.9658    -1.2967     1.6856 N.pl3   
  21 O21           -0.0073     2.9327    -1.9916 O.3     
  22 *22           -0.3985     3.0053    -3.3443 Du      
  23 O23            1.3133     2.0434     0.0005 O.3     
  24 *24            2.0754     1.6441    -1.1166 Du      
  25 H25           -0.3588     2.9849     1.5922 H       
  26 H26           -1.7328     3.9056    -0.4756 H       
  27 H27           -3.0974     3.0006    -2.3919 H       
  28 H28           -3.5446     1.6097    -1.3752 H       
  29 H29            1.1028     1.4362     3.3333 H       
  30 H30           -4.0858    -2.5744     3.7066 H       
  31 H31           -5.1636     3.3615    -1.2490 H       
  32 H32            1.2709    -1.5300     4.9250 H       
  33 H33            1.2040     0.0671     5.7081 H       
  34 H34           -0.0760    -1.1304     6.0179 H       
  35 H35           -1.1981     1.2386    -1.8010 H       
  36 H36            0.5184    -0.3653     0.8914 H       
  37 H37           -1.0206    -0.3813    -0.0028 H       
  38 H38            0.5232    -0.3555    -0.8885 H       
  39 H39           -5.2001    -0.7454     0.9226 H       
  40 H40           -5.5683    -1.9969     1.9814 H       
@<TRIPOS>BOND
   1    1   19 1
   2    1   23 1
   3    1    2 1
   4    1   18 1
   5    2    3 1
   6    2    6 1
   7    2   25 1
   8    3    4 1
   9    4   18 1
  10    4    5 1
  11    4   26 1
  12    5   15 1
  13    5   27 1
  14    5   28 1
  15    6    7 2
  16    6    8 1
  17    7   10 1
  18    7   29 1
  19    8    9 1
  20    8   11 1
  21    9   10 2
  22    9   14 1
  23   10   17 1
  24   11   12 2
  25   12   13 1
  26   12   20 1
  27   13   14 am
  28   13   30 1
  29   14   16 2
  30   15   31 1
  31   17   32 1
  32   17   33 1
  33   17   34 1
  34   18   21 1
  35   18   35 1
  36   19   36 1
  37   19   37 1
  38   19   38 1
  39   20   39 1
  40   20   40 1
  41   21   22 1
  42   23   24 1

#	End of record

