#	Name: ASD01914977
#	Creating user name:	WinNT
#	Creation time:	15. 06. 2019 20:04

#	Modifying user name:	WinNT
#	Modification time:	15. 06. 2019 20:04

#	Program:	/corina/corina34_cracker 3.40 0067  02.08.2006

@<TRIPOS>MOLECULE
ASD01914977
  43   46    0    0    0
SMALL
NO_CHARGES


@<TRIPOS>ATOM
   1 C1            -0.2247     1.4603    -1.1240 C.ar    
   2 C2            -0.2361     0.0852    -1.2776 C.ar    
   3 C3             0.9600    -0.6062    -1.1416 C.ar    
   4 C4             2.1161     0.0934    -0.8593 C.ar    
   5 N5             2.0954     1.4053    -0.7179 N.ar    
   6 C6             0.9760     2.0988    -0.8405 C.ar    
   7 O7             1.0006     3.4467    -0.6875 O.3     
   8 C8             2.2660     4.0437    -0.3971 C.3     
   9 C9             2.0986     5.5353    -0.2624 C.2     
  10 C10            0.8970     6.2449    -0.3917 C.2     
  11 N11            3.0515     6.3984     0.0024 N.2     
  12 N12            2.5887     7.5856     0.0597 N.pl3   
  13 C13            1.2348     7.5533    -0.1924 C.2     
  14 C14            0.4278     8.7829    -0.1936 C.2     
  15 C15            3.2769     8.8489     0.3517 C.3     
  16 C16            2.5609     9.9909    -0.3681 C.3     
  17 N17            1.1130     9.9519    -0.1758 N.am    
  18 O18           -0.7882     8.7523    -0.2101 O.2     
  19 C19            0.4191    11.1484     0.0368 C.ar    
  20 C20           -0.8518    12.5839     1.4774 C.ar    
  21 C21           -0.1674    11.4025     1.2697 C.ar    
  22 C22            0.3208    12.0859    -0.9830 C.ar    
  23 C23           -0.3645    13.2661    -0.7710 C.ar    
  24 C24           -0.9535    13.5149     0.4573 C.ar    
  25 F25           -1.6242    14.6696     0.6623 F       
  26 C26            4.7250     8.7663    -0.1353 C.3     
  27 H27           -1.1364     2.0301    -1.2275 H       
  28 H28           -1.1547    -0.4384    -1.4980 H       
  29 H29            0.9858    -1.6799    -1.2550 H       
  30 H30            3.0493    -0.4397    -0.7524 H       
  31 H31            2.6545     3.6360     0.5361 H       
  32 H32            2.9637     3.8280    -1.2063 H       
  33 H33           -0.0833     5.8443    -0.6035 H       
  34 H34            3.2634     9.0308     1.4263 H       
  35 H35            2.9410    10.9396     0.0108 H       
  36 H36            2.7784     9.9268    -1.4343 H       
  37 H37           -1.3081    12.7819     2.4361 H       
  38 H38           -0.0887    10.6765     2.0655 H       
  39 H39            0.7803    11.8924    -1.9410 H       
  40 H40           -0.4409    13.9956    -1.5637 H       
  41 H41            4.7371     8.5863    -1.2102 H       
  42 H42            5.2354     9.7046     0.0818 H       
  43 H43            5.2340     7.9490     0.3757 H       
@<TRIPOS>BOND
   1    1    2 ar
   2    1    6 ar
   3    1   27 1
   4    2    3 ar
   5    2   28 1
   6    3    4 ar
   7    3   29 1
   8    4    5 ar
   9    4   30 1
  10    5    6 ar
  11    6    7 1
  12    7    8 1
  13    8    9 1
  14    8   31 1
  15    8   32 1
  16    9   11 2
  17    9   10 1
  18   10   13 2
  19   10   33 1
  20   11   12 1
  21   12   15 1
  22   12   13 1
  23   13   14 1
  24   14   17 am
  25   14   18 2
  26   15   16 1
  27   15   26 1
  28   15   34 1
  29   16   17 1
  30   16   35 1
  31   16   36 1
  32   17   19 1
  33   19   22 ar
  34   19   21 ar
  35   20   21 ar
  36   20   24 ar
  37   20   37 1
  38   21   38 1
  39   22   23 ar
  40   22   39 1
  41   23   24 ar
  42   23   40 1
  43   24   25 1
  44   26   41 1
  45   26   42 1
  46   26   43 1

#	End of record

