#	Name: ASD03490109
#	Creating user name:	WinNT
#	Creation time:	15. 06. 2019 20:42

#	Modifying user name:	WinNT
#	Modification time:	15. 06. 2019 20:42

#	Program:	/corina/corina34_cracker 3.40 0067  02.08.2006

@<TRIPOS>MOLECULE
ASD03490109
  73   78    0    0    0
SMALL
NO_CHARGES


@<TRIPOS>ATOM
   1 C1             0.8706     2.2862    -0.1103 C.ar    
   2 C2             0.6687     0.9395    -0.0086 C.ar    
   3 C3             1.7603     0.0683    -0.0249 C.ar    
   4 N4             1.5982    -1.2755     0.0735 N.2     
   5 C5             4.1926    -0.3511    -0.1615 C.2     
   6 N6             3.9023    -1.6688    -0.0557 N.am    
   7 C7             4.9387    -2.6109    -0.0642 C.ar    
   8 C8             5.5333    -2.9997     1.1272 C.ar    
   9 C9             6.5597    -3.9339     1.1147 C.ar    
  10 N10            7.1614    -4.3288     2.3136 N.am    
  11 C11            6.4218    -4.4375     3.4350 C.2     
  12 O12            5.2512    -4.1112     3.4248 O.2     
  13 C13            7.0357    -4.9546     4.6799 C.ar    
  14 C14            8.3823    -5.3358     4.7125 C.ar    
  15 C15            8.9181    -5.8125     5.8913 C.ar    
  16 C16            2.6115    -2.0864     0.0580 C.2     
  17 N17            8.1813    -5.9129     6.9807 N.ar    
  18 C18            6.9046    -5.5648     6.9972 C.ar    
  19 C19            6.2885    -5.0693     5.8530 C.ar    
  20 N20            6.1727    -5.6906     8.1726 N.3     
  21 C21            7.0076    -6.2244     9.2585 C.3     
  22 C22            6.1808    -6.2903    10.5454 C.3     
  23 O23            5.0153    -7.0870    10.3169 O.3     
  24 C24            4.1789    -6.5954     9.2661 C.3     
  25 C25            4.9854    -6.5326     7.9663 C.3     
  26 C26            6.9882    -4.4764    -0.0903 C.ar    
  27 C27            6.3937    -4.0869    -1.2752 C.ar    
  28 C28            5.3684    -3.1612    -1.2654 C.ar    
  29 N29            2.3379     4.1925    -0.3337 N.3     
  30 C30            4.7186    -2.7439    -2.5595 C.3     
  31 C31            3.0661     0.5935    -0.1471 C.ar    
  32 C32            3.2574     1.9696    -0.2501 C.ar    
  33 C33            2.1575     2.8103    -0.2312 C.ar    
  34 C34            1.0484     4.8963    -0.2931 C.3     
  35 C35            1.2934     6.4067    -0.3278 C.3     
  36 N36            2.0401     6.7514    -1.5456 N.3     
  37 O37            5.3419     0.0370    -0.2639 O.2     
  38 C38            3.3296     6.0476    -1.5863 C.3     
  39 C39            3.0846     4.5373    -1.5516 C.3     
  40 C40            2.2297     8.2042    -1.6534 C.3     
  41 H41            0.0220     2.9542    -0.1016 H       
  42 H42           -0.3337     0.5485     0.0848 H       
  43 H43            5.1985    -2.5761     2.0626 H       
  44 H44            8.1111    -4.5246     2.3381 H       
  45 H45            8.9941    -5.2582     3.8259 H       
  46 H46            9.9564    -6.1081     5.9224 H       
  47 H47            2.4210    -3.1464     0.1399 H       
  48 H48            5.2477    -4.7817     5.8710 H       
  49 H49            7.3514    -7.2247     8.9952 H       
  50 H50            7.8672    -5.5718     9.4112 H       
  51 H51            6.7782    -6.7387    11.3392 H       
  52 H52            5.8821    -5.2838    10.8380 H       
  53 H53            3.3284    -7.2644     9.1348 H       
  54 H54            3.8219    -5.5977     9.5215 H       
  55 H55            4.3688    -6.1050     7.1757 H       
  56 H56            5.2969    -7.5378     7.6823 H       
  57 H57            7.7871    -5.2032    -0.1009 H       
  58 H58            6.7286    -4.5101    -2.2107 H       
  59 H59            5.2495    -1.8862    -2.9725 H       
  60 H60            4.7571    -3.5709    -3.2686 H       
  61 H61            3.6794    -2.4729    -2.3735 H       
  62 H62            4.2535     2.3764    -0.3434 H       
  63 H63            0.4481     4.6054    -1.1551 H       
  64 H64            0.5200     4.6346     0.6236 H       
  65 H65            0.3374     6.9303    -0.3270 H       
  66 H66            1.8707     6.7017     0.5485 H       
  67 H67            3.8580     6.3094    -2.5029 H       
  68 H68            3.9300     6.3386    -0.7243 H       
  69 H69            4.0407     4.0137    -1.5524 H       
  70 H70            2.5074     4.2423    -2.4279 H       
  71 H71            2.7872     8.5630    -0.7883 H       
  72 H72            2.7850     8.4316    -2.5634 H       
  73 H73            1.2575     8.6958    -1.6887 H       
@<TRIPOS>BOND
   1    1    2 ar
   2    1   33 ar
   3    1   41 1
   4    2    3 ar
   5    2   42 1
   6    3    4 1
   7    3   31 ar
   8    4   16 2
   9    5    6 am
  10    5   31 1
  11    5   37 2
  12    6    7 1
  13    6   16 1
  14    7    8 ar
  15    7   28 ar
  16    8    9 ar
  17    8   43 1
  18    9   10 1
  19    9   26 ar
  20   10   11 am
  21   10   44 1
  22   11   12 2
  23   11   13 1
  24   13   14 ar
  25   13   19 ar
  26   14   15 ar
  27   14   45 1
  28   15   17 ar
  29   15   46 1
  30   16   47 1
  31   17   18 ar
  32   18   19 ar
  33   18   20 1
  34   19   48 1
  35   20   21 1
  36   20   25 1
  37   21   22 1
  38   21   49 1
  39   21   50 1
  40   22   23 1
  41   22   51 1
  42   22   52 1
  43   23   24 1
  44   24   25 1
  45   24   53 1
  46   24   54 1
  47   25   55 1
  48   25   56 1
  49   26   27 ar
  50   26   57 1
  51   27   28 ar
  52   27   58 1
  53   28   30 1
  54   29   33 1
  55   29   34 1
  56   29   39 1
  57   30   59 1
  58   30   60 1
  59   30   61 1
  60   31   32 ar
  61   32   33 ar
  62   32   62 1
  63   34   35 1
  64   34   63 1
  65   34   64 1
  66   35   36 1
  67   35   65 1
  68   35   66 1
  69   36   38 1
  70   36   40 1
  71   38   39 1
  72   38   67 1
  73   38   68 1
  74   39   69 1
  75   39   70 1
  76   40   71 1
  77   40   72 1
  78   40   73 1

#	End of record

