#	Name: ASD01680142
#	Creating user name:	WinNT
#	Creation time:	15. 06. 2019 19:22

#	Modifying user name:	WinNT
#	Modification time:	15. 06. 2019 19:22

#	Program:	/corina/corina34_cracker 3.40 0067  02.08.2006

@<TRIPOS>MOLECULE
ASD01680142
  87   91    0    0    0
SMALL
NO_CHARGES


@<TRIPOS>ATOM
   1 N1             1.6180     2.9987     1.8510 N.am    
   2 C2             1.4446     1.5397     1.7297 C.3     
   3 C3             2.8671     0.9546     1.9140 C.3     
   4 C4             3.7367     2.0164     1.1903 C.3     
   5 C5             3.0079     3.3380     1.5124 C.3     
   6 C6             0.6596     3.8767     2.2074 C.2     
   7 O7            -0.4833     3.4966     2.3678 O.2     
   8 O8             0.9686     5.1749     2.3857 O.3     
   9 C9             0.5099     1.0218     2.8247 C.3     
  10 N10            1.0067     1.4512     4.1343 N.pl3   
  11 C11            0.2665     1.1842     5.2801 C.ar    
  12 C12           -0.9454     0.5086     5.1762 C.ar    
  13 C13           -1.6715     0.2495     6.3244 C.ar    
  14 C14           -1.1596     0.6763     7.5429 C.ar    
  15 C15            0.0495     1.3414     7.5725 C.ar    
  16 N16            0.7236     1.5702     6.4612 N.ar    
  17 O17            5.0640     2.0289     1.7197 O.3     
  18 C18            6.0639     2.4102     0.7727 C.3     
  19 C19            7.4173     2.3891     1.4352 C.2     
  20 N20            8.5182     2.7157     0.7296 N.am    
  21 O21            7.5159     2.0781     2.6033 O.2     
  22 C22            9.8338     2.6952     1.3737 C.3     
  23 C23           10.9044     3.1034     0.3598 C.3     
  24 C24           12.2682     2.9643     0.9857 C.2     
  25 O25           13.0836     2.2179     0.4979 O.2     
  26 O26           12.5771     3.6696     2.0852 O.3     
  27 N27           10.8171     2.2368    -0.8182 N.am    
  28 C28           11.2670     2.6739    -2.0111 C.2     
  29 O29           11.7454     3.7873    -2.1097 O.2     
  30 N30           11.1867     1.8766    -3.0949 N.am    
  31 C31           12.8709     3.0950    -6.7087 C.ar    
  32 C32           13.4781     3.4428    -5.5031 C.ar    
  33 C33           12.9192     3.0390    -4.3092 C.ar    
  34 C34           11.7516     2.2855    -4.3071 C.ar    
  35 C35           11.1446     1.9372    -5.5078 C.ar    
  36 C36           11.6997     2.3391    -6.7041 C.ar    
  37 C37           13.4670     3.5335    -7.9944 C.ar    
  38 C38           12.8611     3.1866    -9.2006 C.ar    
  39 C39           13.4198     3.5977   -10.3937 C.ar    
  40 C40           14.5792     4.3522   -10.3939 C.ar    
  41 C41           15.1851     4.6990    -9.1997 C.ar    
  42 C42           14.6317     4.2986    -8.0004 C.ar    
  43 C43           -0.1139     6.0635     2.7692 C.3     
  44 C44            0.4173     7.4655     2.9218 C.ar    
  45 C45            0.4277     8.3226     1.8373 C.ar    
  46 C46            0.9149     9.6086     1.9774 C.ar    
  47 C47            1.3914    10.0377     3.2020 C.ar    
  48 C48            1.3802     9.1809     4.2868 C.ar    
  49 C49            0.8889     7.8963     4.1478 C.ar    
  50 H50            1.0541     1.2846     0.7445 H       
  51 H51            3.1288     0.8891     2.9700 H       
  52 H52            2.9551    -0.0181     1.4301 H       
  53 H53            3.7508     1.8358     0.1154 H       
  54 H54            3.0279     3.9940     0.6422 H       
  55 H55            3.4868     3.8283     2.3600 H       
  56 H56           -0.4916     1.4221     2.6669 H       
  57 H57            0.4758    -0.0671     2.7882 H       
  58 H58            1.8521     1.9219     4.2018 H       
  59 H59           -1.3142     0.1911     4.2121 H       
  60 H60           -2.6156    -0.2726     6.2746 H       
  61 H61           -1.7022     0.4899     8.4579 H       
  62 H62            0.4512     1.6750     8.5179 H       
  63 H63            6.0578     1.7111    -0.0635 H       
  64 H64            5.8539     3.4154     0.4074 H       
  65 H65            8.4393     2.9644    -0.2046 H       
  66 H66            9.8400     3.3943     2.2099 H       
  67 H67           10.0439     1.6899     1.7390 H       
  68 H68           10.7457     4.1396     0.0611 H       
  69 H69           13.4640     3.5471     2.4506 H       
  70 H70           10.4355     1.3485    -0.7396 H       
  71 H71           10.7371     1.0193    -3.0340 H       
  72 H72           14.3858     4.0281    -5.5043 H       
  73 H73           13.3895     3.3080    -3.3750 H       
  74 H74           10.2372     1.3515    -5.5037 H       
  75 H75           11.2272     2.0688    -7.6369 H       
  76 H76           11.9563     2.5970    -9.2016 H       
  77 H77           12.9511     3.3295   -11.3290 H       
  78 H78           15.0132     4.6714   -11.3299 H       
  79 H79           16.0903     5.2879    -9.2057 H       
  80 H80           15.1029     4.5740    -7.0685 H       
  81 H81           -0.8856     6.0492     1.9996 H       
  82 H82           -0.5388     5.7309     3.7162 H       
  83 H83            0.0554     7.9874     0.8806 H       
  84 H84            0.9237    10.2781     1.1299 H       
  85 H85            1.7728    11.0422     3.3113 H       
  86 H86            1.7528     9.5160     5.2435 H       
  87 H87            0.8768     7.2280     4.9962 H       
@<TRIPOS>BOND
   1    1    2 1
   2    1    5 1
   3    1    6 am
   4    2    3 1
   5    2    9 1
   6    2   50 1
   7    3    4 1
   8    3   51 1
   9    3   52 1
  10    4    5 1
  11    4   17 1
  12    4   53 1
  13    5   54 1
  14    5   55 1
  15    6    7 2
  16    6    8 1
  17    8   43 1
  18    9   10 1
  19    9   56 1
  20    9   57 1
  21   10   11 1
  22   10   58 1
  23   11   12 ar
  24   11   16 ar
  25   12   13 ar
  26   12   59 1
  27   13   14 ar
  28   13   60 1
  29   14   15 ar
  30   14   61 1
  31   15   16 ar
  32   15   62 1
  33   17   18 1
  34   18   19 1
  35   18   63 1
  36   18   64 1
  37   19   20 am
  38   19   21 2
  39   20   22 1
  40   20   65 1
  41   22   23 1
  42   22   66 1
  43   22   67 1
  44   23   24 1
  45   23   27 1
  46   23   68 1
  47   24   25 2
  48   24   26 1
  49   26   69 1
  50   27   28 am
  51   27   70 1
  52   28   29 2
  53   28   30 am
  54   30   34 1
  55   30   71 1
  56   31   32 ar
  57   31   36 ar
  58   31   37 1
  59   32   33 ar
  60   32   72 1
  61   33   34 ar
  62   33   73 1
  63   34   35 ar
  64   35   36 ar
  65   35   74 1
  66   36   75 1
  67   37   38 ar
  68   37   42 ar
  69   38   39 ar
  70   38   76 1
  71   39   40 ar
  72   39   77 1
  73   40   41 ar
  74   40   78 1
  75   41   42 ar
  76   41   79 1
  77   42   80 1
  78   43   44 1
  79   43   81 1
  80   43   82 1
  81   44   45 ar
  82   44   49 ar
  83   45   46 ar
  84   45   83 1
  85   46   47 ar
  86   46   84 1
  87   47   48 ar
  88   47   85 1
  89   48   49 ar
  90   48   86 1
  91   49   87 1

#	End of record

