#	Name: ASD00310162
#	Creating user name:	WinNT
#	Creation time:	15. 06. 2019 18:33

#	Modifying user name:	WinNT
#	Modification time:	15. 06. 2019 18:33

#	Program:	/corina/corina34_cracker 3.40 0067  02.08.2006

@<TRIPOS>MOLECULE
ASD00310162
  34   36    0    0    0
SMALL
NO_CHARGES


@<TRIPOS>ATOM
   1 N1            -0.0165     1.3643     0.0095 N.pl3   
   2 C2             0.0021    -0.0041     0.0020 C.2     
   3 C3             1.2697    -0.4447    -0.0124 C.2     
   4 C4             2.1343     0.7387    -0.0143 C.ar    
   5 C5             3.5165     0.9260    -0.0265 C.ar    
   6 C6             4.0329     2.2137    -0.0245 C.ar    
   7 C7             3.1702     3.3163    -0.0104 C.ar    
   8 C8             1.8063     3.1363     0.0021 C.ar    
   9 C9             1.2721     1.8506    -0.0001 C.ar    
  10 S10            1.7947    -2.1266    -0.0265 S.o2    
  11 O11            1.7555    -2.5479    -1.3830 O.2     
  12 O12            2.9682    -2.1873     0.7726 O.2     
  13 O13            0.7338    -2.9359     0.7057 O.3     
  14 C14            5.5017     2.4227    -0.0369 C.ar    
  15 C15            6.0753     3.2934    -0.9617 C.ar    
  16 C16            7.4411     3.4856    -0.9708 C.ar    
  17 C17            8.2442     2.8127    -0.0601 C.ar    
  18 C18            7.6757     1.9448     0.8622 C.ar    
  19 C19            6.3100     1.7530     0.8799 C.ar    
  20 O20            9.5895     3.0038    -0.0718 O.3     
  21 C21           10.3560     2.2798     0.8928 C.3     
  22 Cl22           3.8267     4.9234    -0.0080 Cl      
  23 H23           -0.8180     1.9105     0.0165 H       
  24 H24           -0.8738    -0.6359     0.0075 H       
  25 H25            4.1803     0.0742    -0.0371 H       
  26 H26            1.1492     3.9934     0.0137 H       
  27 H27            0.9261    -3.8822     0.7558 H       
  28 H28            5.4511     3.8169    -1.6707 H       
  29 H29            7.8862     4.1600    -1.6874 H       
  30 H30            8.3031     1.4227     1.5695 H       
  31 H31            5.8678     1.0813     1.6008 H       
  32 H32           11.4119     2.5231     0.7747 H       
  33 H33           10.0299     2.5541     1.8960 H       
  34 H34           10.2108     1.2098     0.7434 H       
@<TRIPOS>BOND
   1    1    2 1
   2    1    9 1
   3    1   23 1
   4    2    3 2
   5    2   24 1
   6    3    4 1
   7    3   10 1
   8    4    5 ar
   9    4    9 ar
  10    5    6 ar
  11    5   25 1
  12    6    7 ar
  13    6   14 1
  14    7    8 ar
  15    7   22 1
  16    8    9 ar
  17    8   26 1
  18   10   11 2
  19   10   12 2
  20   10   13 1
  21   13   27 1
  22   14   15 ar
  23   14   19 ar
  24   15   16 ar
  25   15   28 1
  26   16   17 ar
  27   16   29 1
  28   17   18 ar
  29   17   20 1
  30   18   19 ar
  31   18   30 1
  32   19   31 1
  33   20   21 1
  34   21   32 1
  35   21   33 1
  36   21   34 1

#	End of record

