#	Name: ASD01880047
#	Creating user name:	WinNT
#	Creation time:	15. 06. 2019 19:39

#	Modifying user name:	WinNT
#	Modification time:	15. 06. 2019 19:39

#	Program:	/corina/corina34_cracker 3.40 0067  02.08.2006

@<TRIPOS>MOLECULE
ASD01880047
  57   59    0    0    0
SMALL
NO_CHARGES


@<TRIPOS>ATOM
   1 S1            -0.0218     1.7577     0.0117 S.3     
   2 C2            -0.4734     1.8974     1.7091 C.ar    
   3 C3            -1.7998     1.7389     2.1124 C.ar    
   4 C4            -2.1114     1.8554     3.4504 C.ar    
   5 N5            -1.1743     2.1136     4.3437 N.ar    
   6 C6             0.0913     2.2702     4.0024 C.ar    
   7 C7             0.4868     2.1635     2.6859 C.ar    
   8 C8             4.5178     7.3474    -3.1385 C.ar    
   9 C9             4.3436     6.9429    -1.8229 C.ar    
  10 C10            4.5467     7.8412    -0.7781 C.ar    
  11 C11            4.9193     9.1279    -1.0363 C.ar    
  12 C12            5.1005     9.5544    -2.3592 C.ar    
  13 C13            4.9018     8.6481    -3.4162 C.ar    
  14 C14            5.5002    10.9356    -2.6392 C.2     
  15 C15            5.7176    11.9020    -1.5035 C.3     
  16 C16            6.1255    13.2655    -2.0651 C.3     
  17 C17            5.0173    13.7931    -2.9786 C.3     
  18 C18            6.3462    14.2467    -0.9121 C.3     
  19 O19            5.0745     9.0489    -4.7001 O.3     
  20 O20            5.6562    11.3015    -3.7855 O.2     
  21 C21            1.6850     2.1952     0.0184 C.ar    
  22 C22            2.6567     1.2074     0.1197 C.ar    
  23 C23            3.9935     1.5539     0.1242 C.ar    
  24 C24            4.3655     2.8822     0.0279 C.ar    
  25 C25            3.4008     3.8684    -0.0731 C.ar    
  26 C26            2.0626     3.5289    -0.0834 C.ar    
  27 C27            4.2957     6.3700    -4.2639 C.3     
  28 C28            3.8111     5.3148    -0.1772 C.3     
  29 O29            3.9731     5.6661    -1.5528 O.3     
  30 C30            7.4209    13.1203    -2.8663 C.3     
  31 H31           -2.5714     1.5283     1.3868 H       
  32 H32           -3.1354     1.7343     3.7718 H       
  33 H33            0.8269     2.4804     4.7647 H       
  34 H34            1.5239     2.2925     2.4135 H       
  35 H35            4.4079     7.5172     0.2428 H       
  36 H36            5.0746     9.8187    -0.2207 H       
  37 H37            4.7948    12.0055    -0.9327 H       
  38 H38            6.5072    11.5262    -0.8527 H       
  39 H39            4.0944    13.8965    -2.4078 H       
  40 H40            5.3078    14.7644    -3.3787 H       
  41 H41            4.8600    13.0940    -3.8000 H       
  42 H42            7.1358    13.8709    -0.2613 H       
  43 H43            6.6368    15.2181    -1.3122 H       
  44 H44            5.4234    14.3502    -0.3413 H       
  45 H45            5.9753     8.9306    -5.0312 H       
  46 H46            2.3669     0.1697     0.1952 H       
  47 H47            4.7494     0.7865     0.2032 H       
  48 H48            5.4116     3.1504     0.0320 H       
  49 H49            1.3099     4.2993    -0.1627 H       
  50 H50            3.2537     6.4115    -4.5808 H       
  51 H51            4.9413     6.6292    -5.1030 H       
  52 H52            4.5315     5.3623    -3.9217 H       
  53 H53            3.0416     5.9438     0.2702 H       
  54 H54            4.7537     5.4638     0.3494 H       
  55 H55            7.2636    12.4213    -3.6877 H       
  56 H56            7.7114    14.0917    -3.2664 H       
  57 H57            8.2104    12.7445    -2.2155 H       
@<TRIPOS>BOND
   1    1    2 1
   2    1   21 1
   3    2    3 ar
   4    2    7 ar
   5    3    4 ar
   6    3   31 1
   7    4    5 ar
   8    4   32 1
   9    5    6 ar
  10    6    7 ar
  11    6   33 1
  12    7   34 1
  13    8    9 ar
  14    8   27 1
  15    8   13 ar
  16    9   10 ar
  17    9   29 1
  18   10   11 ar
  19   10   35 1
  20   11   12 ar
  21   11   36 1
  22   12   13 ar
  23   12   14 1
  24   13   19 1
  25   14   15 1
  26   14   20 2
  27   15   16 1
  28   15   37 1
  29   15   38 1
  30   16   17 1
  31   16   18 1
  32   16   30 1
  33   17   39 1
  34   17   40 1
  35   17   41 1
  36   18   42 1
  37   18   43 1
  38   18   44 1
  39   19   45 1
  40   21   22 ar
  41   21   26 ar
  42   22   23 ar
  43   22   46 1
  44   23   24 ar
  45   23   47 1
  46   24   25 ar
  47   24   48 1
  48   25   26 ar
  49   25   28 1
  50   26   49 1
  51   27   50 1
  52   27   51 1
  53   27   52 1
  54   28   29 1
  55   28   53 1
  56   28   54 1
  57   30   55 1
  58   30   56 1
  59   30   57 1

#	End of record

