#	Name: ASD04930024
#	Creating user name:	WinNT
#	Creation time:	15. 06. 2019 20:56

#	Modifying user name:	WinNT
#	Modification time:	15. 06. 2019 20:56

#	Program:	/corina/corina34_cracker 3.40 0067  02.08.2006

@<TRIPOS>MOLECULE
ASD04930024
  28   29    0    0    0
SMALL
NO_CHARGES


@<TRIPOS>ATOM
   1 C1            -0.0531     1.0578     0.1224 C.ar    
   2 C2             0.0873    -0.3221     0.0959 C.ar    
   3 C3             1.3368    -0.9009     0.0374 C.ar    
   4 C4             2.4751    -0.1010     0.0043 C.ar    
   5 C5             2.3350     1.2983     0.0311 C.ar    
   6 C6             1.0582     1.8708     0.0906 C.ar    
   7 N7             3.7271    -0.6787    -0.0538 N.am    
   8 C8             4.8472     0.0628    -0.0870 C.2     
   9 C9             4.7815     1.5237    -0.0628 C.2     
  10 C10            3.5307     2.1456    -0.0037 C.2     
  11 O11            3.4269     3.4906     0.0199 O.3     
  12 O12            5.9319    -0.4892    -0.1377 O.2     
  13 C13            6.0092     2.3243    -0.1000 C.2     
  14 O14            5.9431     3.5348    -0.1956 O.2     
  15 H15            3.8005    -1.6458    -0.0707 H       
  16 Br16           0.8609     3.7512     0.1263 Br      
  17 O17            7.2118     1.7183    -0.0281 O.3     
  18 C18            9.6465     1.7134     0.0223 C.3     
  19 C19            8.3845     2.5734    -0.0706 C.3     
  20 H20           -1.0390     1.4968     0.1637 H       
  21 H21           -0.7915    -0.9493     0.1217 H       
  22 H22            1.4327    -1.9765     0.0177 H       
  23 H23            4.2759     3.9496     0.0794 H       
  24 H24           10.5268     2.3553    -0.0096 H       
  25 H25            9.6376     1.1551     0.9585 H       
  26 H26            9.6740     1.0169    -0.8157 H       
  27 H27            8.3933     3.1316    -1.0068 H       
  28 H28            8.3569     3.2698     0.7674 H       
@<TRIPOS>BOND
   1    1    2 ar
   2    1    6 ar
   3    1   20 1
   4    2    3 ar
   5    2   21 1
   6    3    4 ar
   7    3   22 1
   8    4    5 ar
   9    4    7 1
  10    5    6 ar
  11    5   10 1
  12    6   16 1
  13    7    8 am
  14    7   15 1
  15    8    9 1
  16    8   12 2
  17    9   10 2
  18    9   13 1
  19   10   11 1
  20   11   23 1
  21   13   14 2
  22   13   17 1
  23   17   19 1
  24   18   19 1
  25   18   24 1
  26   18   25 1
  27   18   26 1
  28   19   27 1
  29   19   28 1

#	End of record

