#	Name: ASD04910447
#	Creating user name:	WinNT
#	Creation time:	15. 06. 2019 20:55

#	Modifying user name:	WinNT
#	Modification time:	15. 06. 2019 20:55

#	Program:	/corina/corina34_cracker 3.40 0067  02.08.2006

@<TRIPOS>MOLECULE
ASD04910447
  61   63    0    0    0
SMALL
NO_CHARGES


@<TRIPOS>ATOM
   1 C1             1.1386     1.7702    -0.6397 C.2     
   2 C2             0.9758     0.2720    -0.6303 C.3     
   3 C3             2.3271    -0.3861    -0.3442 C.3     
   4 O4             2.2241     2.2612    -0.4383 O.2     
   5 O5             0.0789     2.5589    -0.8773 O.3     
   6 C6             3.2340    -2.6346    -0.1019 C.2     
   7 C7             3.0743    -4.1044    -0.0926 C.ar    
   8 C8             4.1753    -4.9276     0.1485 C.ar    
   9 C9             4.0193    -6.2983     0.1562 C.ar    
  10 C10            2.7749    -6.8573    -0.0748 C.ar    
  11 C11            1.6794    -6.0470    -0.3144 C.ar    
  12 C12            1.8206    -4.6746    -0.3192 C.ar    
  13 O13            4.3260    -2.1407     0.1007 O.2     
  14 N14            2.1688    -1.8425    -0.3350 N.am    
  15 C15            2.6122    -8.3555    -0.0658 C.3     
  16 C16            2.0371    -8.7980     1.2812 C.3     
  17 C17            1.9883   -10.3261     1.3376 C.3     
  18 C18            1.4132   -10.7686     2.6846 C.3     
  19 O19            1.7226    -8.7443    -1.1144 O.3     
  20 C20            1.9701    -9.9337    -1.7244 C.ar    
  21 C21            3.0897   -10.6737    -1.3726 C.ar    
  22 C22            3.3417   -11.8816    -1.9922 C.ar    
  23 C23            2.4743   -12.3557    -2.9670 C.ar    
  24 C24            1.3538   -11.6150    -3.3184 C.ar    
  25 C25            1.0999   -10.4098    -2.6945 C.ar    
  26 C26            0.4122   -12.1289    -4.3768 C.3     
  27 C27            4.5583   -12.6849    -1.6107 C.3     
  28 N28            2.7302   -13.5827    -3.5972 N.pl3   
  29 N29            3.9113   -13.9393    -4.2608 N.2     
  30 C30            3.7739   -15.1586    -4.7164 C.2     
  31 C31            2.5023   -15.6217    -4.3600 C.2     
  32 C32            1.8791   -14.6390    -3.6677 C.2     
  33 Cl33           1.8425   -17.1831    -4.7345 Cl      
  34 H34            0.2627    -0.0111     0.1439 H       
  35 H35            0.6085    -0.0597    -1.6014 H       
  36 H36            3.0403    -0.1030    -1.1184 H       
  37 H37            2.6944    -0.0544     0.6270 H       
  38 H38            0.2325     3.5137    -0.8732 H       
  39 H39            5.1473    -4.4925     0.3282 H       
  40 H40            4.8705    -6.9364     0.3426 H       
  41 H41            0.7108    -6.4896    -0.4940 H       
  42 H42            0.9638    -4.0430    -0.5020 H       
  43 H43            1.2974    -2.2366    -0.4967 H       
  44 H44            3.5828    -8.8273    -0.2191 H       
  45 H45            2.6697    -8.4247     2.0866 H       
  46 H46            1.0297    -8.3978     1.3952 H       
  47 H47            1.3557   -10.6994     0.5323 H       
  48 H48            2.9957   -10.7263     1.2236 H       
  49 H49            1.3784   -11.8573     2.7248 H       
  50 H50            2.0458   -10.3953     3.4900 H       
  51 H51            0.4058   -10.3684     2.7987 H       
  52 H52            3.7644   -10.3048    -0.6143 H       
  53 H53            0.2262    -9.8354    -2.9648 H       
  54 H54           -0.3866   -12.7014    -3.9054 H       
  55 H55           -0.0164   -11.2875    -4.9213 H       
  56 H56            0.9585   -12.7694    -5.0692 H       
  57 H57            4.3177   -13.3296    -0.7655 H       
  58 H58            4.8698   -13.2968    -2.4573 H       
  59 H59            5.3676   -12.0092    -1.3336 H       
  60 H60            4.5153   -15.7127    -5.2729 H       
  61 H61            0.8847   -14.6858    -3.2490 H       
@<TRIPOS>BOND
   1    1    2 1
   2    1    4 2
   3    1    5 1
   4    2    3 1
   5    2   34 1
   6    2   35 1
   7    3   14 1
   8    3   36 1
   9    3   37 1
  10    5   38 1
  11    6    7 1
  12    6   13 2
  13    6   14 am
  14    7    8 ar
  15    7   12 ar
  16    8    9 ar
  17    8   39 1
  18    9   10 ar
  19    9   40 1
  20   10   11 ar
  21   10   15 1
  22   11   12 ar
  23   11   41 1
  24   12   42 1
  25   14   43 1
  26   15   16 1
  27   15   19 1
  28   15   44 1
  29   16   17 1
  30   16   45 1
  31   16   46 1
  32   17   18 1
  33   17   47 1
  34   17   48 1
  35   18   49 1
  36   18   50 1
  37   18   51 1
  38   19   20 1
  39   20   21 ar
  40   20   25 ar
  41   21   22 ar
  42   21   52 1
  43   22   23 ar
  44   22   27 1
  45   23   24 ar
  46   23   28 1
  47   24   25 ar
  48   24   26 1
  49   25   53 1
  50   26   54 1
  51   26   55 1
  52   26   56 1
  53   27   57 1
  54   27   58 1
  55   27   59 1
  56   28   29 1
  57   28   32 1
  58   29   30 2
  59   30   31 1
  60   30   60 1
  61   31   32 2
  62   31   33 1
  63   32   61 1

#	End of record

