#	Name: ASD01871028
#	Creating user name:	WinNT
#	Creation time:	15. 06. 2019 19:39

#	Modifying user name:	WinNT
#	Modification time:	15. 06. 2019 19:39

#	Program:	/corina/corina34_cracker 3.40 0067  02.08.2006

@<TRIPOS>MOLECULE
ASD01871028
  26   28    0    0    0
SMALL
NO_CHARGES


@<TRIPOS>ATOM
   1 C1            -0.0266     1.3767    -0.2354 C.2     
   2 C2            -0.0037     0.0376    -0.3549 C.2     
   3 S3            -1.6642    -0.5450    -0.2753 S.3     
   4 C4            -2.2323     1.0562    -0.0899 C.2     
   5 N5            -1.2420     1.8889    -0.0890 N.2     
   6 O6            -3.5354     1.4040     0.0429 O.3     
   7 C7            -4.4715     0.4228    -0.0580 C.ar    
   8 C8            -4.8195    -0.3240     1.0605 C.ar    
   9 C9            -5.0839     0.1703    -1.2762 C.ar    
  10 C10           -6.0349    -0.8269    -1.3776 C.ar    
  11 C11           -6.3778    -1.5745    -0.2637 C.ar    
  12 C12           -5.7720    -1.3215     0.9552 C.ar    
  13 C13            1.2030     2.2102    -0.2591 C.2     
  14 C14            2.5126     1.7539    -0.5025 C.2     
  15 N15            3.3192     2.7805    -0.4401 N.2     
  16 N16            2.5624     3.9239    -0.1565 N.pl3   
  17 C17            1.2672     3.5570    -0.0547 C.2     
  18 F18           -4.2280    -0.0765     2.2497 F       
  19 F19           -7.3083    -2.5487    -0.3654 F       
  20 H20            0.8781    -0.5736    -0.4780 H       
  21 H21           -4.8178     0.7533    -2.1455 H       
  22 H22           -6.5116    -1.0231    -2.3266 H       
  23 H23           -6.0404    -1.9055     1.8231 H       
  24 H24            2.8006     0.7329    -0.7050 H       
  25 H25            2.9083     4.8244    -0.0550 H       
  26 H26            0.4339     4.2105     0.1570 H       
@<TRIPOS>BOND
   1    1    2 2
   2    1   13 1
   3    1    5 1
   4    2    3 1
   5    2   20 1
   6    3    4 1
   7    4    5 2
   8    4    6 1
   9    6    7 1
  10    7    8 ar
  11    7    9 ar
  12    8   18 1
  13    8   12 ar
  14    9   10 ar
  15    9   21 1
  16   10   11 ar
  17   10   22 1
  18   11   12 ar
  19   11   19 1
  20   12   23 1
  21   13   14 1
  22   13   17 2
  23   14   15 2
  24   14   24 1
  25   15   16 1
  26   16   17 1
  27   16   25 1
  28   17   26 1

#	End of record

