#	Name: ASD01881499
#	Creating user name:	WinNT
#	Creation time:	15. 06. 2019 19:42

#	Modifying user name:	WinNT
#	Modification time:	15. 06. 2019 19:42

#	Program:	/corina/corina34_cracker 3.40 0067  02.08.2006

@<TRIPOS>MOLECULE
ASD01881499
  59   61    0    0    0
SMALL
NO_CHARGES


@<TRIPOS>ATOM
   1 C1            -0.0184     1.5028     0.0103 C.3     
   2 C2             0.0021    -0.0041     0.0020 C.2     
   3 O3            -0.9383    -0.6234     0.4402 O.2     
   4 O4             1.0649    -0.6582    -0.4922 O.3     
   5 C5             4.7806    -6.8591    -2.2168 C.3     
   6 C6             3.4911    -6.2951    -1.6170 C.3     
   7 C7             3.5429    -4.7662    -1.6424 C.3     
   8 C8             2.2534    -4.2021    -1.0425 C.3     
   9 C9             2.3053    -2.6732    -1.0679 C.3     
  10 C10            1.0157    -2.1091    -0.4681 C.3     
  11 C11            4.7288    -8.3881    -2.1914 C.3     
  12 C12           -1.1392     2.1889     0.7938 C.3     
  13 C13           -1.1539     2.1971    -0.7442 C.3     
  14 C14           -0.9276     3.6502     1.2404 C.3     
  15 C15           -1.4279     4.4907     0.0394 C.3     
  16 C16           -0.9507     3.6632    -1.1790 C.3     
  17 O17           -2.8530     4.5953     0.0531 O.3     
  18 C18           -3.3525     5.8045    -0.5217 C.3     
  19 C19           -4.8580     5.8081    -0.4544 C.ar    
  20 C20           -5.4987     6.3398     0.6487 C.ar    
  21 C21           -6.8808     6.3434     0.7110 C.ar    
  22 C22           -7.6212     5.8141    -0.3323 C.ar    
  23 C23           -6.9782     5.2823    -1.4357 C.ar    
  24 C24           -5.5976     5.2847    -1.4988 C.ar    
  25 Cl25          -9.3555     5.8172    -0.2555 Cl      
  26 Cl26          -7.6861     7.0106     2.0966 Cl      
  27 C27           -1.7451     3.9495     2.4705 C.2     
  28 O28           -1.3659     4.9289     3.3064 O.3     
  29 O29           -2.7418     3.3078     2.7043 O.2     
  30 N30            0.4959     3.9090     1.4950 N.3     
  31 F31            1.2357     2.1228     0.0017 F       
  32 H32            4.8829    -6.5161    -3.2463 H       
  33 H33            5.6340    -6.5148    -1.6326 H       
  34 H34            2.6377    -6.6394    -2.2011 H       
  35 H35            3.3888    -6.6381    -0.5874 H       
  36 H36            4.3964    -4.4218    -1.0582 H       
  37 H37            3.6452    -4.4231    -2.6719 H       
  38 H38            1.4000    -4.5464    -1.6267 H       
  39 H39            2.1511    -4.5451    -0.0130 H       
  40 H40            3.1587    -2.3288    -0.4838 H       
  41 H41            2.4075    -2.3302    -2.0975 H       
  42 H42            0.9135    -2.4521     0.5614 H       
  43 H43            0.1623    -2.4535    -1.0523 H       
  44 H44            5.6475    -8.7899    -2.6187 H       
  45 H45            4.6265    -8.7311    -1.1619 H       
  46 H46            3.8754    -8.7324    -2.7756 H       
  47 H47           -1.8414     1.5804     1.3638 H       
  48 H48           -1.8666     1.5947    -1.3074 H       
  49 H49           -0.9669     5.4785     0.0404 H       
  50 H50            0.1021     3.8581    -1.3834 H       
  51 H51           -1.5586     3.8891    -2.0551 H       
  52 H52           -2.9620     6.6584     0.0319 H       
  53 H53           -3.0352     5.8703    -1.5624 H       
  54 H54           -4.9205     6.7522     1.4624 H       
  55 H55           -7.5552     4.8689    -2.2497 H       
  56 H56           -5.0960     4.8697    -2.3605 H       
  57 H57           -1.9221     5.0838     4.0821 H       
  58 H58            0.6432     4.8632     1.7878 H       
  59 H59            0.8652     3.2611     2.1747 H       
@<TRIPOS>BOND
   1    1    2 1
   2    1   31 1
   3    1   12 1
   4    1   13 1
   5    2    3 2
   6    2    4 1
   7    4   10 1
   8    5    6 1
   9    5   11 1
  10    5   32 1
  11    5   33 1
  12    6    7 1
  13    6   34 1
  14    6   35 1
  15    7    8 1
  16    7   36 1
  17    7   37 1
  18    8    9 1
  19    8   38 1
  20    8   39 1
  21    9   10 1
  22    9   40 1
  23    9   41 1
  24   10   42 1
  25   10   43 1
  26   11   44 1
  27   11   45 1
  28   11   46 1
  29   12   13 1
  30   12   14 1
  31   12   47 1
  32   13   16 1
  33   13   48 1
  34   14   27 1
  35   14   30 1
  36   14   15 1
  37   15   16 1
  38   15   17 1
  39   15   49 1
  40   16   50 1
  41   16   51 1
  42   17   18 1
  43   18   19 1
  44   18   52 1
  45   18   53 1
  46   19   20 ar
  47   19   24 ar
  48   20   21 ar
  49   20   54 1
  50   21   22 ar
  51   21   26 1
  52   22   23 ar
  53   22   25 1
  54   23   24 ar
  55   23   55 1
  56   24   56 1
  57   27   28 1
  58   27   29 2
  59   28   57 1
  60   30   58 1
  61   30   59 1

#	End of record

