#	Name: ASD03230003
#	Creating user name:	WinNT
#	Creation time:	15. 06. 2019 20:34

#	Modifying user name:	WinNT
#	Modification time:	15. 06. 2019 20:34

#	Program:	/corina/corina34_cracker 3.40 0067  02.08.2006

@<TRIPOS>MOLECULE
ASD03230003
  47   49    0    0    0
SMALL
NO_CHARGES


@<TRIPOS>ATOM
   1 C1            -0.0168     1.3890     0.0097 C.ar    
   2 C2             0.0021    -0.0041     0.0020 C.ar    
   3 C3            -1.1876    -0.7179     0.0091 C.ar    
   4 C4            -2.3950    -0.0522     0.0237 C.ar    
   5 C5            -2.4220     1.3455     0.0320 C.ar    
   6 C6            -1.2227     2.0641     0.0306 C.ar    
   7 C7            -3.7102     2.0590     0.0471 C.2     
   8 C8            -4.8633     1.3656     0.0530 C.2     
   9 C9            -6.1475     2.0770     0.0681 C.2     
  10 C10           -7.4000     1.5012     0.0755 C.2     
  11 N11           -6.3224     3.4331     0.0833 N.pl3   
  12 C12           -8.3458     2.5428     0.0896 C.2     
  13 C13           -9.8112     2.3777     0.1020 C.2     
  14 N14           -7.6981     3.6927     0.0942 N.2     
  15 C15          -10.6081     3.4577     0.1149 C.2     
  16 C16          -12.0725     3.2927     0.1272 C.ar    
  17 C17          -12.9042     4.4162     0.1407 C.ar    
  18 C18          -12.6332     2.0131     0.1198 C.ar    
  19 C19          -14.0042     1.8611     0.1314 C.ar    
  20 C20          -14.8288     2.9760     0.1505 C.ar    
  21 C21          -14.2767     4.2556     0.1523 C.ar    
  22 O22          -16.1793     2.8203     0.1619 O.3     
  23 O23            1.1895    -0.6658    -0.0129 O.3     
  24 O24          -15.0887     5.3463     0.1715 O.3     
  25 C25          -14.4549     6.6270     0.1722 C.3     
  26 O26            1.1517     2.0848     0.0023 O.3     
  27 C27            1.0577     3.5107     0.0108 C.3     
  28 H28           -1.1679    -1.7977     0.0027 H       
  29 H29           -3.3195    -0.6104     0.0285 H       
  30 H30           -1.2386     3.1439     0.0369 H       
  31 H31           -3.7294     3.1388     0.0534 H       
  32 H32           -4.8441     0.2858     0.0467 H       
  33 H33           -7.6160     0.4430     0.0708 H       
  34 H34           -5.6167     4.0986     0.0861 H       
  35 H35          -10.2431     1.3879     0.1006 H       
  36 H36          -10.1762     4.4476     0.1162 H       
  37 H37          -12.4752     5.4073     0.1424 H       
  38 H38          -11.9935     1.1431     0.1045 H       
  39 H39          -14.4365     0.8714     0.1253 H       
  40 H40          -16.5615     2.7664     1.0486 H       
  41 H41            1.5415    -0.8620     0.8662 H       
  42 H42          -13.8209     6.7183     1.0542 H       
  43 H43          -13.8455     6.7313    -0.7256 H       
  44 H44          -15.2146     7.4084     0.1884 H       
  45 H45            0.5127     3.8442    -0.8722 H       
  46 H46            0.5297     3.8347     0.9076 H       
  47 H47            2.0593     3.9408     0.0036 H       
@<TRIPOS>BOND
   1    1    2 ar
   2    1   26 1
   3    1    6 ar
   4    2    3 ar
   5    2   23 1
   6    3    4 ar
   7    3   28 1
   8    4    5 ar
   9    4   29 1
  10    5    6 ar
  11    5    7 1
  12    6   30 1
  13    7    8 2
  14    7   31 1
  15    8    9 1
  16    8   32 1
  17    9   10 2
  18    9   11 1
  19   10   12 1
  20   10   33 1
  21   11   14 1
  22   11   34 1
  23   12   13 1
  24   12   14 2
  25   13   15 2
  26   13   35 1
  27   15   16 1
  28   15   36 1
  29   16   17 ar
  30   16   18 ar
  31   17   21 ar
  32   17   37 1
  33   18   19 ar
  34   18   38 1
  35   19   20 ar
  36   19   39 1
  37   20   21 ar
  38   20   22 1
  39   21   24 1
  40   22   40 1
  41   23   41 1
  42   24   25 1
  43   25   42 1
  44   25   43 1
  45   25   44 1
  46   26   27 1
  47   27   45 1
  48   27   46 1
  49   27   47 1

#	End of record

