#	Name: ASD05130085
#	Creating user name:	WinNT
#	Creation time:	15. 06. 2019 20:56

#	Modifying user name:	WinNT
#	Modification time:	15. 06. 2019 20:56

#	Program:	/corina/corina34_cracker 3.40 0067  02.08.2006

@<TRIPOS>MOLECULE
ASD05130085
  56   59    0    0    0
SMALL
NO_CHARGES


@<TRIPOS>ATOM
   1 N1            -0.0713     1.1810     0.5858 N.am    
   2 C2            -0.1564    -0.1639     0.5630 C.2     
   3 O3             0.7647    -0.8386     0.9814 O.2     
   4 N4            -1.2623    -0.7610     0.0763 N.am    
   5 C5            -1.3033    -2.1555    -0.0608 C.ar    
   6 C6            -2.5267    -2.8188    -0.0612 C.ar    
   7 C7            -2.5713    -4.1950    -0.1962 C.ar    
   8 C8            -1.4002    -4.9178    -0.3318 C.ar    
   9 C9            -0.1702    -4.2588    -0.3326 C.ar    
  10 C10           -0.1264    -2.8723    -0.2014 C.ar    
  11 F11           -1.4469    -6.2616    -0.4630 F       
  12 F12           -3.6736    -2.1172     0.0709 F       
  13 N13            2.6491    -6.0627    -2.0630 N.am    
  14 C14            1.8342    -5.0224    -1.7579 C.2     
  15 C15            1.0874    -5.0319    -0.4779 C.2     
  16 C16            1.5723    -5.7573     0.5558 C.2     
  17 C17            2.8437    -6.5223     0.3203 C.3     
  18 C18            3.0542    -7.6336     1.3072 C.2     
  19 N19            3.8422    -8.6110     0.9830 N.2     
  20 C20            4.4919    -8.6457    -0.2188 C.2     
  21 C21            4.0307    -7.9586    -1.2767 C.2     
  22 C22            2.7880    -7.1353    -1.0857 C.3     
  23 O23            1.7176    -4.0892    -2.5283 O.2     
  24 N24            5.6537    -9.4071    -0.3489 N.pl3   
  25 C25            6.1676   -10.1609     0.7974 C.3     
  26 C26            3.3644    -6.1102    -3.3406 C.3     
  27 C27            4.7264    -5.4300    -3.1881 C.3     
  28 C28            1.0272     1.8030     1.1925 C.ar    
  29 C29            1.5273     2.9932     0.6752 C.ar    
  30 C30            2.6118     3.6050     1.2761 C.ar    
  31 C31            3.1994     3.0346     2.3906 C.ar    
  32 C32            2.7042     1.8497     2.9077 C.ar    
  33 C33            1.6150     1.2360     2.3141 C.ar    
  34 F34            3.2812     1.2949     3.9960 F       
  35 F35            0.9542     3.5508    -0.4137 F       
  36 H36           -0.7689     1.7180     0.1786 H       
  37 H37           -2.0299    -0.2258    -0.1792 H       
  38 H38           -3.5228    -4.7059    -0.1954 H       
  39 H39            0.8233    -2.3580    -0.2054 H       
  40 H40            1.0672    -5.7850     1.5100 H       
  41 H41            3.6895    -5.8363     0.3657 H       
  42 H42            2.5599    -7.6192     2.2674 H       
  43 H43            4.5349    -7.9967    -2.2311 H       
  44 H44            1.9241    -7.7965    -1.1540 H       
  45 H45            6.1212    -9.4374    -1.1982 H       
  46 H46            6.3932    -9.4734     1.6127 H       
  47 H47            5.4169   -10.8798     1.1256 H       
  48 H48            7.0751   -10.6901     0.5069 H       
  49 H49            3.5083    -7.1489    -3.6381 H       
  50 H50            2.7825    -5.5913    -4.1023 H       
  51 H51            5.3084    -5.9489    -2.4264 H       
  52 H52            5.2587    -5.4653    -4.1387 H       
  53 H53            4.5826    -4.3913    -2.8906 H       
  54 H54            3.0007     4.5290     0.8745 H       
  55 H55            4.0465     3.5144     2.8583 H       
  56 H56            1.2260     0.3141     2.7206 H       
@<TRIPOS>BOND
   1    1    2 am
   2    1   28 1
   3    1   36 1
   4    2    3 2
   5    2    4 am
   6    4    5 1
   7    4   37 1
   8    5    6 ar
   9    5   10 ar
  10    6    7 ar
  11    6   12 1
  12    7    8 ar
  13    7   38 1
  14    8    9 ar
  15    8   11 1
  16    9   10 ar
  17    9   15 1
  18   10   39 1
  19   13   14 am
  20   13   22 1
  21   13   26 1
  22   14   15 1
  23   14   23 2
  24   15   16 2
  25   16   17 1
  26   16   40 1
  27   17   18 1
  28   17   22 1
  29   17   41 1
  30   18   19 2
  31   18   42 1
  32   19   20 1
  33   20   21 2
  34   20   24 1
  35   21   22 1
  36   21   43 1
  37   22   44 1
  38   24   25 1
  39   24   45 1
  40   25   46 1
  41   25   47 1
  42   25   48 1
  43   26   27 1
  44   26   49 1
  45   26   50 1
  46   27   51 1
  47   27   52 1
  48   27   53 1
  49   28   29 ar
  50   28   33 ar
  51   29   30 ar
  52   29   35 1
  53   30   31 ar
  54   30   54 1
  55   31   32 ar
  56   31   55 1
  57   32   33 ar
  58   32   34 1
  59   33   56 1

#	End of record

