#	Name: ASD01886181
#	Creating user name:	WinNT
#	Creation time:	15. 06. 2019 19:50

#	Modifying user name:	WinNT
#	Modification time:	15. 06. 2019 19:50

#	Program:	/corina/corina34_cracker 3.40 0067  02.08.2006

@<TRIPOS>MOLECULE
ASD01886181
  46   49    0    0    0
SMALL
NO_CHARGES


@<TRIPOS>ATOM
   1 C1            -0.0172     1.4136     0.0098 C.ar    
   2 C2             0.0021    -0.0041     0.0020 C.ar    
   3 C3            -1.2272    -0.7095     0.0099 C.ar    
   4 C4            -2.4013     0.0312     0.0251 C.ar    
   5 C5            -2.3342     1.4291     0.0320 C.ar    
   6 N6            -1.1788     2.0668     0.0299 N.ar    
   7 C7             1.2070     2.1138     0.0019 C.ar    
   8 C8             2.3811     1.4224    -0.0130 C.ar    
   9 C9             2.3949     0.0299    -0.0206 C.ar    
  10 C10            1.2303    -0.6819    -0.0128 C.ar    
  11 C11           -3.5924     2.2131     0.0477 C.2     
  12 C12           -1.2582    -2.1899     0.0017 C.ar    
  13 N13           -3.5471     3.5601     0.0546 N.am    
  14 O14           -4.6645     1.6412     0.0544 O.2     
  15 C15            3.6857     2.1768    -0.0219 C.3     
  16 C16           -2.0395    -2.8787     0.9299 C.ar    
  17 C17           -2.0654    -4.2576     0.9179 C.ar    
  18 C18           -1.3167    -4.9589    -0.0139 C.ar    
  19 C19           -0.5386    -4.2793    -0.9378 C.ar    
  20 C20           -0.5108    -2.9004    -0.9379 C.ar    
  21 F21           -1.3450    -6.3096    -0.0214 F       
  22 F22            1.2601    -2.0326    -0.0204 F       
  23 F23            1.2156     3.4648     0.0086 F       
  24 C24            4.0723     2.5284     1.3916 C.ar    
  25 C25            4.8490     1.6659     2.1489 C.ar    
  26 N26            5.1703     2.0055     3.3866 N.ar    
  27 C27            4.7589     3.1527     3.9019 C.ar    
  28 N28            4.0160     3.9986     3.2066 N.ar    
  29 C29            3.6639     3.7240     1.9612 C.ar    
  30 O30            5.1064     3.4687     5.1724 O.3     
  31 C31            4.6368     4.7186     5.6817 C.3     
  32 H32           -3.3592    -0.4676     0.0311 H       
  33 H33            3.3394    -0.4937    -0.0327 H       
  34 H34           -2.6913     4.0166     0.0492 H       
  35 H35           -4.3704     4.0730     0.0648 H       
  36 H36            4.4622     1.5546    -0.4669 H       
  37 H37            3.5731     3.0904    -0.6057 H       
  38 H38           -2.6227    -2.3330     1.6569 H       
  39 H39           -2.6699    -4.7917     1.6361 H       
  40 H40            0.0434    -4.8303    -1.6617 H       
  41 H41            0.0957    -2.3717    -1.6583 H       
  42 H42            5.1876     0.7280     1.7341 H       
  43 H43            3.0574     4.4185     1.3988 H       
  44 H44            5.0199     5.5301     5.0628 H       
  45 H45            3.5470     4.7317     5.6642 H       
  46 H46            4.9853     4.8475     6.7064 H       
@<TRIPOS>BOND
   1    1    2 ar
   2    1    7 ar
   3    1    6 ar
   4    2    3 ar
   5    2   10 ar
   6    3    4 ar
   7    3   12 1
   8    4    5 ar
   9    4   32 1
  10    5    6 ar
  11    5   11 1
  12    7    8 ar
  13    7   23 1
  14    8    9 ar
  15    8   15 1
  16    9   10 ar
  17    9   33 1
  18   10   22 1
  19   11   13 am
  20   11   14 2
  21   12   16 ar
  22   12   20 ar
  23   13   34 1
  24   13   35 1
  25   15   24 1
  26   15   36 1
  27   15   37 1
  28   16   17 ar
  29   16   38 1
  30   17   18 ar
  31   17   39 1
  32   18   19 ar
  33   18   21 1
  34   19   20 ar
  35   19   40 1
  36   20   41 1
  37   24   25 ar
  38   24   29 ar
  39   25   26 ar
  40   25   42 1
  41   26   27 ar
  42   27   28 ar
  43   27   30 1
  44   28   29 ar
  45   29   43 1
  46   30   31 1
  47   31   44 1
  48   31   45 1
  49   31   46 1

#	End of record

