#	Name: ASD04880874
#	Creating user name:	WinNT
#	Creation time:	15. 06. 2019 20:53

#	Modifying user name:	WinNT
#	Modification time:	15. 06. 2019 20:53

#	Program:	/corina/corina34_cracker 3.40 0067  02.08.2006

@<TRIPOS>MOLECULE
ASD04880874
  65   68    0    0    0
SMALL
NO_CHARGES


@<TRIPOS>ATOM
   1 C1             1.0202    -0.3306    -1.2363 C.ar    
   2 C2             0.8495    -1.3097    -2.1980 C.ar    
   3 C3             1.8347    -1.5359    -3.1413 C.ar    
   4 C4             2.9934    -0.7841    -3.1260 C.ar    
   5 C5             3.1681     0.1999    -2.1616 C.ar    
   6 C6             2.1761     0.4246    -1.2152 C.ar    
   7 N7             4.3387     0.9617    -2.1429 N.3     
   8 C8             5.1055     0.7189    -0.9130 C.3     
   9 C9             6.4152     1.5089    -0.9671 C.3     
  10 N10            6.1154     2.9390    -1.1238 N.3     
  11 C11            5.3487     3.1818    -2.3537 C.3     
  12 C12            4.0390     2.3918    -2.2995 C.3     
  13 C13            7.2825     3.6984    -1.1051 C.ar    
  14 C14            7.6939     4.3671    -2.2524 C.ar    
  15 C15            8.8475     5.1193    -2.2384 C.ar    
  16 C16            9.6084     5.2125    -1.0697 C.ar    
  17 C17            9.1967     4.5416     0.0853 C.ar    
  18 C18            8.0356     3.7920     0.0686 C.ar    
  19 N19            7.6169     3.1220     1.2255 N.am    
  20 C20            8.5224     2.7392     2.1475 C.2     
  21 C21            8.0967     1.9573     3.3126 C.2     
  22 O22            9.6934     3.0425     2.0129 O.2     
  23 C23            8.9061     1.5072     4.3161 C.2     
  24 C24            8.0842     0.8105     5.2157 C.2     
  25 C25            6.8251     0.8651     4.7281 C.2     
  26 O26            6.8359     1.5615     3.5841 O.3     
  27 C27           10.8445     6.0176    -1.0553 C.2     
  28 N28           11.2409     6.6638    -2.1696 N.am    
  29 O29           11.5059     6.0981    -0.0381 O.2     
  30 C30           12.4684     7.4633    -2.1553 C.3     
  31 C31           12.6878     8.0858    -3.5357 C.3     
  32 N32           13.9187     8.8874    -3.5213 N.3     
  33 C33            4.0669    -1.0317    -4.1543 C.3     
  34 H34           14.7088     8.3315    -3.2303 H       
  35 C35           14.1620     9.5019    -4.8333 C.3     
  36 H36            0.2468    -0.1534    -0.5036 H       
  37 H37           -0.0554    -1.8992    -2.2121 H       
  38 H38            1.6984    -2.3015    -3.8908 H       
  39 H39            2.3086     1.1893    -0.4641 H       
  40 H40            4.5216     1.0413    -0.0508 H       
  41 H41            5.3259    -0.3451    -0.8259 H       
  42 H42            6.9723     1.3532    -0.0433 H       
  43 H43            7.0111     1.1674    -1.8135 H       
  44 H44            5.1283     4.2458    -2.4407 H       
  45 H45            5.9325     2.8594    -3.2158 H       
  46 H46            3.4819     2.5475    -3.2234 H       
  47 H47            3.4430     2.7333    -1.4531 H       
  48 H48            7.1078     4.2963    -3.1567 H       
  49 H49            9.1646     5.6374    -3.1314 H       
  50 H50            9.7826     4.6117     0.9898 H       
  51 H51            6.6754     2.9335     1.3629 H       
  52 H52            9.9722     1.6581     4.4012 H       
  53 H53            8.3990     0.3223     6.1262 H       
  54 H54            5.9532     0.4231     5.1872 H       
  55 H55           10.7133     6.5996    -2.9811 H       
  56 H56           12.3785     8.2538    -1.4104 H       
  57 H57           13.3155     6.8240    -1.9063 H       
  58 H58           12.7777     7.2952    -4.2807 H       
  59 H59           11.8407     8.7250    -3.7847 H       
  60 H60            3.8397    -0.4687    -5.0595 H       
  61 H61            5.0302    -0.7100    -3.7585 H       
  62 H62            4.1073    -2.0955    -4.3885 H       
  63 H63           14.2621     8.7211    -5.5872 H       
  64 H64           13.3252    10.1510    -5.0913 H       
  65 H65           15.0792    10.0896    -4.7947 H       
@<TRIPOS>BOND
   1    1    2 ar
   2    1    6 ar
   3    1   36 1
   4    2    3 ar
   5    2   37 1
   6    3    4 ar
   7    3   38 1
   8    4    5 ar
   9    4   33 1
  10    5    6 ar
  11    5    7 1
  12    6   39 1
  13    7    8 1
  14    7   12 1
  15    8    9 1
  16    8   40 1
  17    8   41 1
  18    9   10 1
  19    9   42 1
  20    9   43 1
  21   10   11 1
  22   10   13 1
  23   11   12 1
  24   11   44 1
  25   11   45 1
  26   12   46 1
  27   12   47 1
  28   13   14 ar
  29   13   18 ar
  30   14   15 ar
  31   14   48 1
  32   15   16 ar
  33   15   49 1
  34   16   17 ar
  35   16   27 1
  36   17   18 ar
  37   17   50 1
  38   18   19 1
  39   19   20 am
  40   19   51 1
  41   20   21 1
  42   20   22 2
  43   21   23 2
  44   21   26 1
  45   23   24 1
  46   23   52 1
  47   24   25 2
  48   24   53 1
  49   25   26 1
  50   25   54 1
  51   27   28 am
  52   27   29 2
  53   28   30 1
  54   28   55 1
  55   30   31 1
  56   30   56 1
  57   30   57 1
  58   31   32 1
  59   31   58 1
  60   31   59 1
  61   32   34 1
  62   32   35 1
  63   33   60 1
  64   33   61 1
  65   33   62 1
  66   35   63 1
  67   35   64 1
  68   35   65 1

#	End of record

