#	Name: ASD03331816
#	Creating user name:	WinNT
#	Creation time:	15. 06. 2019 20:39

#	Modifying user name:	WinNT
#	Modification time:	15. 06. 2019 20:39

#	Program:	/corina/corina34_cracker 3.40 0067  02.08.2006

@<TRIPOS>MOLECULE
ASD03331816
  58   60    0    0    0
SMALL
NO_CHARGES


@<TRIPOS>ATOM
   1 C1             0.4581     1.7995     0.6715 C.2     
   2 N2             0.6838     0.4818     0.9152 N.pl3   
   3 C3            -0.5261    -0.1367     0.9790 C.2     
   4 N4            -1.4654     0.7634     0.7796 N.2     
   5 C5            -0.8855     1.9700     0.5898 C.2     
   6 C6             1.5548     2.8243     0.5361 C.3     
   7 N7             2.7954     2.2378     1.0743 N.3     
   8 C8             3.0419     0.9047     0.5066 C.3     
   9 C9             2.0224    -0.0952     1.0673 C.3     
  10 C10            3.9413     3.1278     0.8447 C.3     
  11 C11           -1.5864     3.2408     0.3339 C.2     
  12 O12           -0.9503     4.2658     0.1793 O.2     
  13 N13           -2.9325     3.2672     0.2711 N.am    
  14 C14           -3.6341     4.5450     0.1262 C.3     
  15 C15           -5.0537     4.3963     0.6097 C.2     
  16 C16           -3.6378     4.9607    -1.3463 C.3     
  17 C17           -4.2250     6.3674    -1.4776 C.3     
  18 O18           -5.5580     3.2956     0.6806 O.2     
  19 N19           -5.7629     5.4865     0.9632 N.am    
  20 C20           -7.1047     5.3349     1.5314 C.3     
  21 C21           -0.7475    -1.5712     1.2287 C.2     
  22 C22            0.2164    -2.4579     1.4267 C.2     
  23 C23           -3.2958     7.3737    -0.7959 C.3     
  24 C24           -4.3656     6.7251    -2.9586 C.3     
  25 C25           -0.3608    -3.8361     1.6520 C.3     
  26 C26           -1.8176    -3.7429     1.1436 C.3     
  27 C27           -2.1054    -2.2303     1.3000 C.3     
  28 H28            1.6933     3.0790    -0.5147 H       
  29 H29            1.2947     3.7191     1.1016 H       
  30 H30            2.9465     0.9496    -0.5783 H       
  31 H31            4.0491     0.5802     0.7678 H       
  32 H32            2.2271    -0.2763     2.1225 H       
  33 H33            2.0840    -1.0323     0.5141 H       
  34 H34            3.7637     4.0834     1.3382 H       
  35 H35            4.8434     2.6710     1.2515 H       
  36 H36            4.0670     3.2896    -0.2258 H       
  37 H37           -3.4367     2.4400     0.3219 H       
  38 H38           -3.1268     5.3072     0.7176 H       
  39 H39           -2.6167     4.9562    -1.7276 H       
  40 H40           -4.2431     4.2592    -1.9204 H       
  41 H41           -5.2052     6.3978    -1.0018 H       
  42 H42           -5.3849     6.3714     0.8415 H       
  43 H43           -7.5184     6.3185     1.7535 H       
  44 H44           -7.7473     4.8239     0.8145 H       
  45 H45           -7.0467     4.7495     2.4491 H       
  46 H46            1.2715    -2.2272     1.4271 H       
  47 H47           -3.7454     8.3659    -0.8322 H       
  48 H48           -3.1435     7.0816     0.2432 H       
  49 H49           -2.3363     7.3904    -1.3129 H       
  50 H50           -5.0276     6.0082    -3.4442 H       
  51 H51           -4.7840     7.7273    -3.0521 H       
  52 H52           -3.3854     6.6947    -3.4343 H       
  53 H53            0.1944    -4.5783     1.0786 H       
  54 H54           -0.3446    -4.0854     2.7130 H       
  55 H55           -1.8876    -4.0519     0.1006 H       
  56 H56           -2.4880    -4.3319     1.7695 H       
  57 H57           -2.5801    -2.0319     2.2610 H       
  58 H58           -2.7365    -1.8778     0.4842 H       
@<TRIPOS>BOND
   1    1    2 1
   2    1    6 1
   3    1    5 2
   4    2    3 1
   5    2    9 1
   6    3    4 2
   7    3   21 1
   8    4    5 1
   9    5   11 1
  10    6    7 1
  11    6   28 1
  12    6   29 1
  13    7    8 1
  14    7   10 1
  15    8    9 1
  16    8   30 1
  17    8   31 1
  18    9   32 1
  19    9   33 1
  20   10   34 1
  21   10   35 1
  22   10   36 1
  23   11   12 2
  24   11   13 am
  25   13   14 1
  26   13   37 1
  27   14   15 1
  28   14   16 1
  29   14   38 1
  30   15   18 2
  31   15   19 am
  32   16   17 1
  33   16   39 1
  34   16   40 1
  35   17   23 1
  36   17   24 1
  37   17   41 1
  38   19   20 1
  39   19   42 1
  40   20   43 1
  41   20   44 1
  42   20   45 1
  43   21   22 2
  44   21   27 1
  45   22   25 1
  46   22   46 1
  47   23   47 1
  48   23   48 1
  49   23   49 1
  50   24   50 1
  51   24   51 1
  52   24   52 1
  53   25   26 1
  54   25   53 1
  55   25   54 1
  56   26   27 1
  57   26   55 1
  58   26   56 1
  59   27   57 1
  60   27   58 1

#	End of record

