#	Name: ASD09116417
#	Creating user name:	WinNT
#	Creation time:	15. 06. 2019 21:21

#	Modifying user name:	WinNT
#	Modification time:	15. 06. 2019 21:21

#	Program:	/corina/corina34_cracker 3.40 0067  02.08.2006

@<TRIPOS>MOLECULE
ASD09116417
  74   80    0    0    0
SMALL
NO_CHARGES


@<TRIPOS>ATOM
   1 N1            -0.0224     1.4417    -0.7039 N.2     
   2 N2            -0.0333     0.1047    -1.1328 N.pl3   
   3 C3             1.2325     1.8212    -0.6653 C.2     
   4 N4             2.0089     0.7995    -1.0451 N.2     
   5 C5             1.2597    -0.2439    -1.3306 C.2     
   6 N6             1.7130    -1.4779    -1.7568 N.pl3   
   7 C7            -1.1554    -0.7051    -1.3178 C.ar    
   8 N8             1.6848     3.0860    -0.2897 N.pl3   
   9 C9             3.0587     3.3356    -0.1849 C.ar    
  10 C10            3.5546     4.6082    -0.4386 C.ar    
  11 C11            3.9242     2.3126     0.1781 C.ar    
  12 C12            5.2799     2.5582     0.2827 C.ar    
  13 C13            5.7774     3.8274     0.0245 C.ar    
  14 C14            4.9106     4.8542    -0.3346 C.ar    
  15 N15           -1.1035    -1.7267    -2.1593 N.ar    
  16 N16           -2.1106    -2.4964    -2.3733 N.ar    
  17 C17           -3.2686    -2.3103    -1.7605 C.ar    
  18 C18           -3.4104    -1.2692    -0.8385 C.ar    
  19 C19           -2.3315    -0.4414    -0.6110 C.ar    
  20 C20           -4.4464    -3.1621    -2.0455 C.ar    
  21 C21           -5.6693    -2.5503    -2.3263 C.ar    
  22 C22           -5.7465    -1.0493    -2.3872 C.3     
  23 C23           -5.7548    -0.4350    -0.9900 C.3     
  24 C24           -4.7067    -1.0989    -0.1010 C.3     
  25 C25           -4.3487    -4.5492    -2.0322 C.ar    
  26 C26           -5.4705    -5.3163    -2.2792 C.ar    
  27 C27           -6.6862    -4.7063    -2.5363 C.ar    
  28 C28           -6.7852    -3.3246    -2.5592 C.ar    
  29 F29            5.3944     6.0903    -0.5861 F       
  30 N30            7.1525     4.0762     0.1310 N.3     
  31 C31            7.6327     3.8035     1.4917 C.3     
  32 C32            9.0998     4.2226     1.6099 C.3     
  33 C33            9.9323     3.4423     0.5887 C.3     
  34 C34            9.3813     3.7057    -0.8154 C.3     
  35 C35            7.9060     3.3015    -0.8632 C.3     
  36 N36           11.3321     3.8826     0.6574 N.3     
  37 C37           11.9135     3.5908     1.9805 C.3     
  38 C38           13.1638     2.7167     1.7478 C.3     
  39 C39           13.5439     3.0347     0.2777 C.3     
  40 C40           12.1500     3.2108    -0.3748 C.3     
  41 Cl41          -8.0943    -5.6778    -2.8316 Cl      
  42 H42            2.6638    -1.6328    -1.8697 H       
  43 H43            1.0802    -2.1891    -1.9430 H       
  44 H44            1.0477     3.7927    -0.1011 H       
  45 H45            2.8809     5.4049    -0.7173 H       
  46 H46            3.5376     1.3244     0.3792 H       
  47 H47            5.9524     1.7620     0.5658 H       
  48 H48           -2.3957     0.3853     0.0811 H       
  49 H49           -4.8860    -0.6701    -2.9383 H       
  50 H50           -6.6586    -0.7601    -2.9093 H       
  51 H51           -5.5385     0.6306    -1.0653 H       
  52 H52           -6.7405    -0.5698    -0.5446 H       
  53 H53           -5.0711    -2.0768     0.2138 H       
  54 H54           -4.5392    -0.4791     0.7798 H       
  55 H55           -3.4004    -5.0245    -1.8293 H       
  56 H56           -5.3989    -6.3939    -2.2721 H       
  57 H57           -7.7367    -2.8544    -2.7592 H       
  58 H58            7.0350     4.3676     2.2077 H       
  59 H59            7.5413     2.7379     1.7024 H       
  60 H60            9.1901     5.2909     1.4128 H       
  61 H61            9.4604     4.0057     2.6153 H       
  62 H62            9.8735     2.3764     0.8091 H       
  63 H63            9.4760     4.7658    -1.0505 H       
  64 H64            9.9430     3.1194    -1.5426 H       
  65 H65            7.8133     2.2384    -0.6415 H       
  66 H66            7.5068     3.5012    -1.8577 H       
  67 H67           12.1976     4.5203     2.4739 H       
  68 H68           11.1913     3.0497     2.5918 H       
  69 H69           13.9676     3.0057     2.4248 H       
  70 H70           12.9222     1.6601     1.8634 H       
  71 H71           14.1236     3.9557     0.2148 H       
  72 H72           14.0845     2.2032    -0.1745 H       
  73 H73           11.7227     2.2397    -0.6249 H       
  74 H74           12.2241     3.8345    -1.2657 H       
@<TRIPOS>BOND
   1    1    2 1
   2    1    3 2
   3    2    7 1
   4    2    5 1
   5    3    4 1
   6    3    8 1
   7    4    5 2
   8    5    6 1
   9    6   42 1
  10    6   43 1
  11    7   15 ar
  12    7   19 ar
  13    8    9 1
  14    8   44 1
  15    9   10 ar
  16    9   11 ar
  17   10   14 ar
  18   10   45 1
  19   11   12 ar
  20   11   46 1
  21   12   13 ar
  22   12   47 1
  23   13   14 ar
  24   13   30 1
  25   14   29 1
  26   15   16 ar
  27   16   17 ar
  28   17   18 ar
  29   17   20 1
  30   18   19 ar
  31   18   24 1
  32   19   48 1
  33   20   21 ar
  34   20   25 ar
  35   21   22 1
  36   21   28 ar
  37   22   23 1
  38   22   49 1
  39   22   50 1
  40   23   24 1
  41   23   51 1
  42   23   52 1
  43   24   53 1
  44   24   54 1
  45   25   26 ar
  46   25   55 1
  47   26   27 ar
  48   26   56 1
  49   27   28 ar
  50   27   41 1
  51   28   57 1
  52   30   31 1
  53   30   35 1
  54   31   32 1
  55   31   58 1
  56   31   59 1
  57   32   33 1
  58   32   60 1
  59   32   61 1
  60   33   34 1
  61   33   36 1
  62   33   62 1
  63   34   35 1
  64   34   63 1
  65   34   64 1
  66   35   65 1
  67   35   66 1
  68   36   37 1
  69   36   40 1
  70   37   38 1
  71   37   67 1
  72   37   68 1
  73   38   39 1
  74   38   69 1
  75   38   70 1
  76   39   40 1
  77   39   71 1
  78   39   72 1
  79   40   73 1
  80   40   74 1

#	End of record

