#	Name: ASD01141093
#	Creating user name:	WinNT
#	Creation time:	15. 06. 2019 19:01

#	Modifying user name:	WinNT
#	Modification time:	15. 06. 2019 19:01

#	Program:	/corina/corina34_cracker 3.40 0067  02.08.2006

@<TRIPOS>MOLECULE
ASD01141093
  52   54    0    0    0
SMALL
NO_CHARGES


@<TRIPOS>ATOM
   1 C1             0.2458     1.8131     1.0186 C.ar    
   2 C2             0.0749     0.4364     0.9695 C.ar    
   3 C3             1.4473     2.3835     0.7084 C.ar    
   4 C4             1.1216    -0.3958     0.6037 C.ar    
   5 C5             2.5269     1.5765     0.3348 C.ar    
   6 C6             2.3742     0.1703     0.2783 C.ar    
   7 C7             0.9286    -1.8633     0.5550 C.ar    
   8 C8             3.7924     2.1235     0.0046 C.ar    
   9 N9             3.4143    -0.5919    -0.0802 N.ar    
  10 C10            0.0466    -2.4230    -0.3683 C.ar    
  11 C11            1.6348    -2.6939     1.4315 C.ar    
  12 C12            4.8048     1.2232    -0.3556 C.ar    
  13 N13            4.0177     3.4823     0.0361 N.pl3   
  14 N14            4.5570    -0.0882    -0.3775 N.ar    
  15 C15           -0.1295    -3.7952    -0.4088 C.ar    
  16 C16            1.4499    -4.0658     1.3810 C.ar    
  17 O17            2.5009    -2.1560     2.3302 O.3     
  18 C18            6.1440     1.7253    -0.7110 C.2     
  19 C19            0.5700    -4.6140     0.4675 C.ar    
  20 O20           -0.9898    -4.3425    -1.3086 O.3     
  21 C21            3.1873    -3.0647     3.1935 C.3     
  22 O22            6.3432     2.9224    -0.7906 O.2     
  23 N23            7.1479     0.8578    -0.9477 N.am    
  24 C24           -1.1234    -5.7652    -1.2959 C.3     
  25 H25            3.2708     4.0991    -0.0161 H       
  26 H26            6.9890    -0.0970    -0.8842 H       
  27 C27            8.4792     1.3569    -1.3010 C.3     
  28 C28            9.5326     0.3160    -0.9167 C.3     
  29 C29            8.5437     1.6156    -2.8076 C.3     
  30 C30            9.5535     0.1487     0.6039 C.3     
  31 H31           -0.5847     2.4427     1.3020 H       
  32 H32           -0.8846     0.0085     1.2197 H       
  33 H33            1.5636     3.4564     0.7512 H       
  34 H34           -0.4983    -1.7871    -1.0502 H       
  35 H35            4.9231     3.8223     0.1104 H       
  36 H36            1.9945    -4.7083     2.0571 H       
  37 H37            0.4289    -5.6842     0.4322 H       
  38 H38            2.4613    -3.6231     3.7844 H       
  39 H39            3.7789    -3.7576     2.5953 H       
  40 H40            3.8453    -2.5063     3.8594 H       
  41 H41           -0.1555    -6.2229    -1.5003 H       
  42 H42           -1.4786    -6.0880    -0.3173 H       
  43 H43           -1.8381    -6.0698    -2.0604 H       
  44 H44            8.6733     2.2855    -0.7642 H       
  45 H45            9.2881    -0.6380    -1.3839 H       
  46 H46           10.5129     0.6475    -1.2593 H       
  47 H47            8.3495     0.6870    -3.3443 H       
  48 H48            7.7932     2.3572    -3.0813 H       
  49 H49            9.5342     1.9870    -3.0704 H       
  50 H50            9.7980     1.1027     1.0711 H       
  51 H51            8.5732    -0.1828     0.9465 H       
  52 H52           10.3039    -0.5928     0.8777 H       
@<TRIPOS>BOND
   1    1    2 ar
   2    1    3 ar
   3    1   31 1
   4    2    4 ar
   5    2   32 1
   6    3    5 ar
   7    3   33 1
   8    4    7 1
   9    4    6 ar
  10    5    6 ar
  11    5    8 ar
  12    6    9 ar
  13    7   10 ar
  14    7   11 ar
  15    8   12 ar
  16    8   13 1
  17    9   14 ar
  18   10   15 ar
  19   10   34 1
  20   11   16 ar
  21   11   17 1
  22   12   18 1
  23   12   14 ar
  24   13   25 1
  25   13   35 1
  26   15   19 ar
  27   15   20 1
  28   16   19 ar
  29   16   36 1
  30   17   21 1
  31   18   22 2
  32   18   23 am
  33   19   37 1
  34   20   24 1
  35   21   38 1
  36   21   39 1
  37   21   40 1
  38   23   26 1
  39   23   27 1
  40   24   41 1
  41   24   42 1
  42   24   43 1
  43   27   28 1
  44   27   29 1
  45   27   44 1
  46   28   30 1
  47   28   45 1
  48   28   46 1
  49   29   47 1
  50   29   48 1
  51   29   49 1
  52   30   50 1
  53   30   51 1
  54   30   52 1

#	End of record

