#	Name: ASD01840098
#	Creating user name:	WinNT
#	Creation time:	15. 06. 2019 19:37

#	Modifying user name:	WinNT
#	Modification time:	15. 06. 2019 19:37

#	Program:	/corina/corina34_cracker 3.40 0067  02.08.2006

@<TRIPOS>MOLECULE
ASD01840098
  46   49    0    0    0
SMALL
NO_CHARGES


@<TRIPOS>ATOM
   1 C1             0.0757     1.4926     0.1135 C.ar    
   2 N2             0.2695     0.4773     0.9418 N.ar    
   3 C3             1.4187    -0.1737     0.9688 C.ar    
   4 N4             2.4218     0.1457     0.1847 N.ar    
   5 C5             1.1278     1.8796    -0.7561 C.ar    
   6 C6             1.1886     2.9370    -1.7475 C.2     
   7 C7             2.3220     1.1577    -0.6868 C.ar    
   8 S8             3.4732     1.8089    -1.8442 S.3     
   9 C9             2.3358     3.0259    -2.3922 C.2     
  10 C10            0.0305     3.8620    -2.0199 C.3     
  11 C11            2.6312     4.0432    -3.4640 C.3     
  12 N12           -1.1351     2.1611     0.0926 N.3     
  13 C13           -2.2283     1.2582    -0.2895 C.3     
  14 C14           -3.5231     2.0593    -0.4436 C.3     
  15 C15           -3.8490     2.7533     0.8818 C.3     
  16 C16           -2.6743     3.6504     1.2815 C.3     
  17 C17           -1.4041     2.8031     1.3856 C.3     
  18 O18           -5.0263     3.5484     0.7277 O.3     
  19 C19           -5.7554     3.7950     1.8480 C.ar    
  20 N20           -6.0412     3.6456     4.1646 N.ar    
  21 C21           -5.3024     3.3869     3.0982 C.ar    
  22 C22           -6.9711     4.4669     1.7744 C.ar    
  23 N23           -7.6511     4.6875     2.8875 N.ar    
  24 C24           -7.1908     4.2802     4.0532 C.ar    
  25 C25           -7.9995     4.5530     5.2953 C.3     
  26 H26            1.5369    -0.9959     1.6591 H       
  27 H27            0.0644     4.7010    -1.3249 H       
  28 H28            0.0956     4.2343    -3.0423 H       
  29 H29           -0.9060     3.3198    -1.8895 H       
  30 H30            3.0533     4.9390    -3.0084 H       
  31 H31            3.3450     3.6259    -4.1742 H       
  32 H32            1.7088     4.3006    -3.9847 H       
  33 H33           -1.9858     0.7743    -1.2356 H       
  34 H34           -2.3599     0.5001     0.4826 H       
  35 H35           -3.3967     2.8084    -1.2252 H       
  36 H36           -4.3376     1.3864    -0.7119 H       
  37 H37           -4.0138     2.0029     1.6550 H       
  38 H38           -2.5345     4.4246     0.5271 H       
  39 H39           -2.8823     4.1143     2.2457 H       
  40 H40           -1.5396     2.0379     2.1499 H       
  41 H41           -0.5629     3.4414     1.6561 H       
  42 H42           -4.3614     2.8661     3.1967 H       
  43 H43           -7.3541     4.8038     0.8225 H       
  44 H44           -7.7099     5.5173     5.7128 H       
  45 H45           -9.0596     4.5702     5.0421 H       
  46 H46           -7.8139     3.7688     6.0292 H       
@<TRIPOS>BOND
   1    1    2 ar
   2    1    5 ar
   3    1   12 1
   4    2    3 ar
   5    3    4 ar
   6    3   26 1
   7    4    7 ar
   8    5    7 ar
   9    5    6 1
  10    6    9 2
  11    6   10 1
  12    7    8 1
  13    8    9 1
  14    9   11 1
  15   10   27 1
  16   10   28 1
  17   10   29 1
  18   11   30 1
  19   11   31 1
  20   11   32 1
  21   12   13 1
  22   12   17 1
  23   13   14 1
  24   13   33 1
  25   13   34 1
  26   14   15 1
  27   14   35 1
  28   14   36 1
  29   15   16 1
  30   15   18 1
  31   15   37 1
  32   16   17 1
  33   16   38 1
  34   16   39 1
  35   17   40 1
  36   17   41 1
  37   18   19 1
  38   19   22 ar
  39   19   21 ar
  40   20   21 ar
  41   20   24 ar
  42   21   42 1
  43   22   23 ar
  44   22   43 1
  45   23   24 ar
  46   24   25 1
  47   25   44 1
  48   25   45 1
  49   25   46 1

#	End of record

