#	Name: ASD06352006
#	Creating user name:	WinNT
#	Creation time:	15. 06. 2019 21:06

#	Modifying user name:	WinNT
#	Modification time:	15. 06. 2019 21:06

#	Program:	/corina/corina34_cracker 3.40 0067  02.08.2006

@<TRIPOS>MOLECULE
ASD06352006
 103  103    0    0    0
SMALL
NO_CHARGES


@<TRIPOS>ATOM
   1 C1            -2.1614     0.3816     3.6043 C.2     
   2 O2            -1.3456    -0.2754     2.9929 O.2     
   3 N3            -0.7214     0.1260     5.5449 N.3     
   4 C4            -1.8304     0.9050     4.9781 C.3     
   5 C5            -1.4218     2.3761     4.8787 C.3     
   6 C6            -1.0857     2.9075     6.2735 C.3     
   7 C7            -0.1941     2.5044     3.9746 C.3     
   8 C8            -4.7303     1.0239     1.0841 C.2     
   9 O9            -5.1679     1.9774     1.6925 O.2     
  10 N10           -3.3618     0.6483     3.0527 N.am    
  11 C11           -3.6814     0.1446     1.7147 C.3     
  12 C12           -4.2125    -1.2863     1.8218 C.3     
  13 C13           -3.1476    -2.1790     2.4620 C.3     
  14 C14           -5.4749    -1.2983     2.6861 C.3     
  15 C15           -7.5961     0.9129    -0.3440 C.2     
  16 O16           -7.6169    -0.0904     0.3371 O.2     
  17 N17           -5.1821     0.7506    -0.1559 N.am    
  18 C18           -6.2788     1.5372    -0.7258 C.3     
  19 C19           -6.1494     1.5630    -2.2501 C.3     
  20 C20           -4.8832     2.2840    -2.6347 C.2     
  21 O21           -4.1151     2.6611    -1.7751 O.2     
  22 N22           -4.6042     2.5098    -3.9338 N.am    
  23 C23          -11.1599     1.6716    -0.9744 C.2     
  24 O24          -10.9180     2.6581    -1.6371 O.2     
  25 N25           -8.7512     1.4694    -0.7594 N.am    
  26 C26          -10.0318     0.8624    -0.3882 C.3     
  27 C27          -14.7795     1.8823    -0.5081 C.2     
  28 O28          -14.8849     0.9034     0.2001 O.2     
  29 N29          -12.4377     1.2989    -0.7624 N.am    
  30 C30          -13.5343     2.0855    -1.3323 C.3     
  31 C31          -13.7945     1.6311    -2.7699 C.3     
  32 C32          -14.0219     0.1183    -2.7933 C.3     
  33 C33          -14.4046    -0.3181    -4.2089 C.3     
  34 C34          -12.5859     1.9787    -3.6413 C.3     
  35 C35          -17.7923     1.4322    -0.3717 C.2     
  36 O36          -17.2701     0.7155    -1.1991 O.2     
  37 N37          -15.7760     2.7884    -0.5579 N.am    
  38 C38          -17.0784     2.6675     0.1134 C.3     
  39 C39          -17.8986     3.9238    -0.2483 C.3     
  40 C40          -17.2265     4.4122    -1.5587 C.3     
  41 C41          -15.7381     4.0678    -1.2895 C.3     
  42 C42          -20.4508     0.2399    -1.6281 C.2     
  43 O43          -20.4071     1.3546    -2.0921 O.2     
  44 N44          -19.0111     1.1238     0.1140 N.am    
  45 C45          -19.7051    -0.0772    -0.3575 C.3     
  46 C46          -20.6944    -0.5470     0.7109 C.3     
  47 C47          -19.9564    -0.7495     2.0357 C.3     
  48 O48          -21.7159     0.4379     0.8803 O.3     
  49 O49          -21.1637    -0.7161    -2.2442 O.3     
  50 H50            0.1019     0.1946     4.9655 H       
  51 H51           -0.5228     0.4151     6.4910 H       
  52 H52           -2.7050     0.8136     5.6222 H       
  53 H53           -2.2446     2.9541     4.4582 H       
  54 H54           -0.2628     2.3295     6.6940 H       
  55 H55           -0.7946     3.9555     6.2026 H       
  56 H56           -1.9603     2.8161     6.9176 H       
  57 H57           -0.4335     2.1258     2.9809 H       
  58 H58            0.0970     3.5524     3.9037 H       
  59 H59            0.6288     1.9263     4.3951 H       
  60 H60           -4.0143     1.1738     3.5417 H       
  61 H61           -2.7820     0.1531     1.0989 H       
  62 H62           -4.4502    -1.6611     0.8262 H       
  63 H63           -2.9098    -1.8042     3.4575 H       
  64 H64           -3.5260    -3.1984     2.5383 H       
  65 H65           -2.2482    -2.1704     1.8462 H       
  66 H66           -6.2336    -0.6623     2.2301 H       
  67 H67           -5.8533    -2.3177     2.7625 H       
  68 H68           -5.2372    -0.9235     3.6817 H       
  69 H69           -4.7812     0.0331    -0.6710 H       
  70 H70           -6.2341     2.5557    -0.3401 H       
  71 H71           -6.1154     0.5417    -2.6292 H       
  72 H72           -7.0071     2.0813    -2.6788 H       
  73 H73           -5.2185     2.2083    -4.6212 H       
  74 H74           -3.7892     2.9739    -4.1813 H       
  75 H75           -8.7346     2.2718    -1.3042 H       
  76 H76          -10.1240     0.8440     0.6977 H       
  77 H77          -10.0766    -0.1561    -0.7739 H       
  78 H78          -12.6312     0.5099    -0.2324 H       
  79 H79          -13.2643     3.1416    -1.3283 H       
  80 H80          -14.6789     2.1374    -3.1566 H       
  81 H81          -13.1070    -0.3914    -2.4909 H       
  82 H82          -14.8260    -0.1390    -2.1039 H       
  83 H83          -14.5666    -1.3959    -4.2256 H       
  84 H84          -15.3195     0.1915    -4.5113 H       
  85 H85          -13.6005    -0.0608    -4.8983 H       
  86 H86          -11.7015     1.4724    -3.2546 H       
  87 H87          -12.7713     1.6550    -4.6655 H       
  88 H88          -12.4239     3.0565    -3.6246 H       
  89 H89          -16.9355     2.6133     1.1926 H       
  90 H90          -18.9428     3.6652    -0.4236 H       
  91 H91          -17.8130     4.6785     0.5335 H       
  92 H92          -17.6079     3.8650    -2.4208 H       
  93 H93          -17.3598     5.4861    -1.6893 H       
  94 H94          -15.2720     4.8406    -0.6782 H       
  95 H95          -15.2000     3.9511    -2.2302 H       
  96 H96          -19.4287     1.6970     0.7758 H       
  97 H97          -18.9772    -0.8653    -0.5504 H       
  98 H98          -21.1460    -1.4888     0.3989 H       
  99 H99          -19.5049     0.1923     2.3477 H       
 100 H100         -20.6612    -1.0842     2.7968 H       
 101 H101         -19.1773    -1.5007     1.9065 H       
 102 H102         -21.3856     1.3033     1.1581 H       
 103 H103         -21.6249    -0.4652    -3.0562 H       
@<TRIPOS>BOND
   1    1    2 2
   2    1    4 1
   3    1   10 am
   4    3    4 1
   5    3   50 1
   6    3   51 1
   7    4    5 1
   8    4   52 1
   9    5    6 1
  10    5    7 1
  11    5   53 1
  12    6   54 1
  13    6   55 1
  14    6   56 1
  15    7   57 1
  16    7   58 1
  17    7   59 1
  18    8    9 2
  19    8   11 1
  20    8   17 am
  21   10   11 1
  22   10   60 1
  23   11   12 1
  24   11   61 1
  25   12   13 1
  26   12   14 1
  27   12   62 1
  28   13   63 1
  29   13   64 1
  30   13   65 1
  31   14   66 1
  32   14   67 1
  33   14   68 1
  34   15   16 2
  35   15   18 1
  36   15   25 am
  37   17   18 1
  38   17   69 1
  39   18   19 1
  40   18   70 1
  41   19   20 1
  42   19   71 1
  43   19   72 1
  44   20   21 2
  45   20   22 am
  46   22   73 1
  47   22   74 1
  48   23   24 2
  49   23   26 1
  50   23   29 am
  51   25   26 1
  52   25   75 1
  53   26   76 1
  54   26   77 1
  55   27   28 2
  56   27   30 1
  57   27   37 am
  58   29   30 1
  59   29   78 1
  60   30   31 1
  61   30   79 1
  62   31   32 1
  63   31   34 1
  64   31   80 1
  65   32   33 1
  66   32   81 1
  67   32   82 1
  68   33   83 1
  69   33   84 1
  70   33   85 1
  71   34   86 1
  72   34   87 1
  73   34   88 1
  74   35   36 2
  75   35   44 am
  76   35   38 1
  77   37   38 1
  78   37   41 1
  79   38   39 1
  80   38   89 1
  81   39   40 1
  82   39   90 1
  83   39   91 1
  84   40   41 1
  85   40   92 1
  86   40   93 1
  87   41   94 1
  88   41   95 1
  89   42   43 2
  90   42   45 1
  91   42   49 1
  92   44   45 1
  93   44   96 1
  94   45   46 1
  95   45   97 1
  96   46   47 1
  97   46   48 1
  98   46   98 1
  99   47   99 1
 100   47  100 1
 101   47  101 1
 102   48  102 1
 103   49  103 1

#	End of record

