#	Name: ASD01209119
#	Creating user name:	WinNT
#	Creation time:	15. 06. 2019 19:11

#	Modifying user name:	WinNT
#	Modification time:	15. 06. 2019 19:11

#	Program:	/corina/corina34_cracker 3.40 0067  02.08.2006

@<TRIPOS>MOLECULE
ASD01209119
  80   82    0    0    0
SMALL
NO_CHARGES


@<TRIPOS>ATOM
   1 C1            -0.9763    -1.0800    -0.6331 C.ar    
   2 C2            -1.3638    -2.4026    -0.7899 C.ar    
   3 C3            -2.7080    -2.7453    -0.7497 C.ar    
   4 C4            -3.6685    -1.7670    -0.5526 C.ar    
   5 C5            -3.2828    -0.4354    -0.3941 C.ar    
   6 C6            -1.9300    -0.0961    -0.4295 C.ar    
   7 O7             0.3414    -0.7497    -0.6738 O.3     
   8 C8             0.6635     0.6415    -0.6197 C.3     
   9 C9             2.0248     0.8758    -1.2775 C.3     
  10 O10           -3.0824    -4.0425    -0.9042 O.3     
  11 C11           -3.7516    -4.3827    -2.0369 C.ar    
  12 C12           -4.2329    -5.6740    -2.1985 C.ar    
  13 C13           -4.3045     0.6123    -0.1835 C.2     
  14 N14           -5.6105     0.2817    -0.1446 N.am    
  15 O15           -3.9666     1.7719    -0.0456 O.2     
  16 C16           -6.5786     1.2744     0.0549 C.2     
  17 C17           -6.3305     2.6457     0.2279 C.2     
  18 C18           -7.5214     3.2655     0.3904 C.2     
  19 N19           -8.4891     2.3271     0.3236 N.pl3   
  20 N20           -7.8763     1.0863     0.1072 N.2     
  21 P21          -10.6371     2.8991    -1.1960 P.3     
  22 O22          -10.3014     1.7863    -2.1122 O.2     
  23 C23            0.7175     1.0961     0.8403 C.3     
  24 C24           -4.9132    -6.0171    -3.3507 C.ar    
  25 C25           -5.1146    -5.0751    -4.3426 C.ar    
  26 C26           -4.6360    -3.7876    -4.1841 C.ar    
  27 C27           -3.9596    -3.4378    -3.0316 C.ar    
  28 S28           -5.9823    -5.5162    -5.8114 S.o2    
  29 O29           -5.4898    -4.6149    -6.7934 O.2     
  30 O30           -5.7756    -6.9168    -5.9332 O.2     
  31 C31           -7.7205    -5.1596    -5.4347 C.3     
  32 C32           -9.9291     2.5653     0.4504 C.3     
  33 O33            3.0413     0.2226    -0.5146 O.3     
  34 C34            4.3584     0.3799    -1.0461 C.3     
  35 O35          -10.0274     4.2725    -1.7739 O.3     
  36 C36          -10.2736     4.7346    -3.1036 C.3     
  37 C37          -10.8492     6.1513    -3.0528 C.3     
  38 C38           -8.9617     4.7451    -3.8909 C.3     
  39 O39          -12.2371     3.0309    -1.0754 O.3     
  40 C40          -13.0967     3.1420    -2.2115 C.3     
  41 C41          -14.0002     1.9097    -2.2899 C.3     
  42 C42          -13.9589     4.3989    -2.0779 C.3     
  43 H43           -0.6174    -3.1678    -0.9440 H       
  44 H44           -4.7145    -2.0344    -0.5222 H       
  45 H45           -1.6273     0.9333    -0.3071 H       
  46 H46           -0.0993     1.2119    -1.1498 H       
  47 H47            2.0137     0.4713    -2.2896 H       
  48 H48            2.2304     1.9456    -1.3160 H       
  49 H49           -4.0755    -6.4103    -1.4242 H       
  50 H50           -5.8801    -0.6435    -0.2547 H       
  51 H51           -5.3607     3.1209     0.2311 H       
  52 H52           -7.6714     4.3237     0.5463 H       
  53 H53            0.9632     2.1572     0.8815 H       
  54 H54           -0.2523     0.9291     1.3089 H       
  55 H55            1.4803     0.5257     1.3704 H       
  56 H56           -5.2877    -7.0222    -3.4771 H       
  57 H57           -4.7943    -3.0537    -4.9605 H       
  58 H58           -3.5859    -2.4321    -2.9083 H       
  59 H59           -7.8315    -4.1013    -5.1988 H       
  60 H60           -8.3375    -5.4060    -6.2988 H       
  61 H61           -8.0371    -5.7574    -4.5799 H       
  62 H62          -10.4067     1.6844     0.8795 H       
  63 H63          -10.0995     3.4238     1.1001 H       
  64 H64            5.0717    -0.1447    -0.4105 H       
  65 H65            4.3957    -0.0349    -2.0534 H       
  66 H66            4.6124     1.4394    -1.0798 H       
  67 H67          -10.9858     4.0704    -3.5930 H       
  68 H68          -10.0996     6.8339    -2.6526 H       
  69 H69          -11.1278     6.4665    -4.0583 H       
  70 H70          -11.7303     6.1627    -2.4112 H       
  71 H71           -8.2495     5.4093    -3.4014 H       
  72 H72           -8.5516     3.7358    -3.9271 H       
  73 H73           -9.1495     5.0975    -4.9051 H       
  74 H74          -12.4945     3.2092    -3.1176 H       
  75 H75          -14.6024     1.8426    -1.3838 H       
  76 H76          -14.6559     1.9944    -3.1565 H       
  77 H77          -13.3860     1.0143    -2.3851 H       
  78 H78          -13.3207     5.2820    -2.1073 H       
  79 H79          -14.6728     4.4389    -2.9005 H       
  80 H80          -14.4973     4.3711    -1.1305 H       
@<TRIPOS>BOND
   1    1    2 ar
   2    1    7 1
   3    1    6 ar
   4    2    3 ar
   5    2   43 1
   6    3    4 ar
   7    3   10 1
   8    4    5 ar
   9    4   44 1
  10    5    6 ar
  11    5   13 1
  12    6   45 1
  13    7    8 1
  14    8    9 1
  15    8   23 1
  16    8   46 1
  17    9   33 1
  18    9   47 1
  19    9   48 1
  20   10   11 1
  21   11   12 ar
  22   11   27 ar
  23   12   24 ar
  24   12   49 1
  25   13   14 am
  26   13   15 2
  27   14   16 1
  28   14   50 1
  29   16   17 1
  30   16   20 2
  31   17   18 2
  32   17   51 1
  33   18   19 1
  34   18   52 1
  35   19   20 1
  36   19   32 1
  37   21   22 2
  38   21   35 1
  39   21   39 1
  40   21   32 1
  41   23   53 1
  42   23   54 1
  43   23   55 1
  44   24   25 ar
  45   24   56 1
  46   25   26 ar
  47   25   28 1
  48   26   27 ar
  49   26   57 1
  50   27   58 1
  51   28   29 2
  52   28   30 2
  53   28   31 1
  54   31   59 1
  55   31   60 1
  56   31   61 1
  57   32   62 1
  58   32   63 1
  59   33   34 1
  60   34   64 1
  61   34   65 1
  62   34   66 1
  63   35   36 1
  64   36   37 1
  65   36   38 1
  66   36   67 1
  67   37   68 1
  68   37   69 1
  69   37   70 1
  70   38   71 1
  71   38   72 1
  72   38   73 1
  73   39   40 1
  74   40   41 1
  75   40   42 1
  76   40   74 1
  77   41   75 1
  78   41   76 1
  79   41   77 1
  80   42   78 1
  81   42   79 1
  82   42   80 1

#	End of record

