#	Name: ASD01917858
#	Creating user name:	WinNT
#	Creation time:	15. 06. 2019 20:10

#	Modifying user name:	WinNT
#	Modification time:	15. 06. 2019 20:10

#	Program:	/corina/corina34_cracker 3.40 0067  02.08.2006

@<TRIPOS>MOLECULE
ASD01917858
  43   46    0    0    0
SMALL
NO_CHARGES


@<TRIPOS>ATOM
   1 C1             0.0813     0.9526    -0.7936 C.2     
   2 C2            -0.0549    -0.3861    -0.7560 C.2     
   3 C3            -1.3712    -1.0754    -0.4315 C.3     
   4 C4            -2.2949    -0.0833     0.2791 C.3     
   5 N5            -2.2891     1.1908    -0.4554 N.am    
   6 C6            -1.0243     1.9444    -0.5135 C.3     
   7 C7            -3.4039     1.6536    -1.0549 C.2     
   8 O8            -4.4042     0.9617    -1.0969 O.2     
   9 S9             1.7450     1.3379    -1.2112 S.3     
  10 C10            2.1173    -0.3282    -1.2952 C.2     
  11 N11            1.0714    -1.0295    -1.0315 N.2     
  12 C12            3.4735    -0.8936    -1.6302 C.3     
  13 O13            3.5767    -1.0786    -3.0434 O.3     
  14 C14            4.7461    -1.5849    -3.5156 C.ar    
  15 C15            4.9148    -1.7903    -4.8772 C.ar    
  16 C16            6.1045    -2.3051    -5.3547 C.ar    
  17 C17            7.1266    -2.6156    -4.4768 C.ar    
  18 C18            6.9608    -2.4122    -3.1193 C.ar    
  19 C19            5.7752    -1.8919    -2.6374 C.ar    
  20 C20           -3.4116     2.9903    -1.6564 C.2     
  21 C21           -4.3036     3.4335    -2.5919 C.2     
  22 C22           -4.0797     4.7318    -2.9846 C.2     
  23 C23           -3.0409     5.3328    -2.3925 C.2     
  24 S24           -2.2792     4.2829    -1.2842 S.3     
  25 C25           -2.6057     6.7497    -2.6642 C.3     
  26 H26           -1.8420    -1.4149    -1.3541 H       
  27 H27           -1.1845    -1.9297     0.2193 H       
  28 H28           -3.3083    -0.4838     0.3060 H       
  29 H29           -1.9397     0.0809     1.2965 H       
  30 H30           -0.8452     2.4415     0.4399 H       
  31 H31           -1.0695     2.6826    -1.3142 H       
  32 H32            4.2476    -0.2026    -1.2967 H       
  33 H33            3.6015    -1.8525    -1.1279 H       
  34 H34            4.1166    -1.5482    -5.5633 H       
  35 H35            6.2362    -2.4655    -6.4146 H       
  36 H36            8.0559    -3.0180    -4.8521 H       
  37 H37            7.7603    -2.6562    -2.4355 H       
  38 H38            5.6462    -1.7332    -1.5769 H       
  39 H39           -5.1046     2.8244    -2.9840 H       
  40 H40           -4.6967     5.2301    -3.7176 H       
  41 H41           -3.1206     7.4253    -1.9811 H       
  42 H42           -1.5291     6.8339    -2.5157 H       
  43 H43           -2.8525     7.0149    -3.6922 H       
@<TRIPOS>BOND
   1    1    2 2
   2    1    9 1
   3    1    6 1
   4    2    3 1
   5    2   11 1
   6    3    4 1
   7    3   26 1
   8    3   27 1
   9    4    5 1
  10    4   28 1
  11    4   29 1
  12    5    6 1
  13    5    7 am
  14    6   30 1
  15    6   31 1
  16    7    8 2
  17    7   20 1
  18    9   10 1
  19   10   11 2
  20   10   12 1
  21   12   13 1
  22   12   32 1
  23   12   33 1
  24   13   14 1
  25   14   15 ar
  26   14   19 ar
  27   15   16 ar
  28   15   34 1
  29   16   17 ar
  30   16   35 1
  31   17   18 ar
  32   17   36 1
  33   18   19 ar
  34   18   37 1
  35   19   38 1
  36   20   21 2
  37   20   24 1
  38   21   22 1
  39   21   39 1
  40   22   23 2
  41   22   40 1
  42   23   25 1
  43   23   24 1
  44   25   41 1
  45   25   42 1
  46   25   43 1

#	End of record

