#	Name: ASD01530066
#	Creating user name:	WinNT
#	Creation time:	15. 06. 2019 19:22

#	Modifying user name:	WinNT
#	Modification time:	15. 06. 2019 19:22

#	Program:	/corina/corina34_cracker 3.40 0067  02.08.2006

@<TRIPOS>MOLECULE
ASD01530066
  44   46    0    0    0
SMALL
NO_CHARGES


@<TRIPOS>ATOM
   1 C1             0.1760     0.8819     0.0290 C.ar    
   2 C2             0.3962    -0.4817     0.1043 C.ar    
   3 C3             1.6875    -0.9730     0.1448 C.ar    
   4 C4             2.7614    -0.1015     0.1101 C.ar    
   5 C5             1.2466     1.7508    -0.0056 C.ar    
   6 C6             1.3419     3.2565    -0.0845 C.3     
   7 C7             2.5419     1.2580     0.0351 C.ar    
   8 C8             3.4751     2.4450    -0.0175 C.3     
   9 O9             2.6780     3.5909     0.3339 O.3     
  10 C10            4.6132     2.2658     0.9892 C.3     
  11 C11            5.5479     3.4754     0.9230 C.3     
  12 C12            6.6860     3.2961     1.9297 C.3     
  13 N13            7.5834     4.4574     1.8661 N.3     
  14 C14            8.5488     4.4380     2.9732 C.3     
  15 C15            8.2706     4.5213     0.5693 C.3     
  16 C16            4.0318     2.6066    -1.4085 C.ar    
  17 C17            3.8758     3.8050    -2.0802 C.ar    
  18 C18            4.3855     3.9544    -3.3562 C.ar    
  19 C19            5.0527     2.9046    -3.9618 C.ar    
  20 C20            5.2093     1.7048    -3.2890 C.ar    
  21 C21            4.7030     1.5588    -2.0098 C.ar    
  22 Cl22           5.6926     3.0915    -5.5647 Cl      
  23 Cl23           6.0462     0.3865    -4.0476 Cl      
  24 H24           -0.8329     1.2655    -0.0072 H       
  25 H25           -0.4414    -1.1629     0.1318 H       
  26 H26            1.8582    -2.0377     0.2039 H       
  27 H27            3.7704    -0.4854     0.1421 H       
  28 H28            1.1745     3.5903    -1.1085 H       
  29 H29            0.6132     3.7145     0.5844 H       
  30 H30            4.1995     2.1810     1.9941 H       
  31 H31            5.1719     1.3613     0.7488 H       
  32 H32            5.9616     3.5602    -0.0819 H       
  33 H33            4.9892     4.3799     1.1635 H       
  34 H34            6.2723     3.2113     2.9345 H       
  35 H35            7.2447     2.3916     1.6892 H       
  36 H36            9.1484     3.5295     2.9165 H       
  37 H37            9.2008     5.3086     2.9020 H       
  38 H38            8.0136     4.4615     3.9224 H       
  39 H39            7.5332     4.6053    -0.2289 H       
  40 H40            8.9285     5.3901     0.5492 H       
  41 H41            8.8601     3.6158     0.4256 H       
  42 H42            3.3550     4.6248    -1.6077 H       
  43 H43            4.2627     4.8905    -3.8806 H       
  44 H44            4.8283     0.6244    -1.4828 H       
@<TRIPOS>BOND
   1    1    2 ar
   2    1    5 ar
   3    1   24 1
   4    2    3 ar
   5    2   25 1
   6    3    4 ar
   7    3   26 1
   8    4    7 ar
   9    4   27 1
  10    5    7 ar
  11    5    6 1
  12    6    9 1
  13    6   28 1
  14    6   29 1
  15    7    8 1
  16    8    9 1
  17    8   10 1
  18    8   16 1
  19   10   11 1
  20   10   30 1
  21   10   31 1
  22   11   12 1
  23   11   32 1
  24   11   33 1
  25   12   13 1
  26   12   34 1
  27   12   35 1
  28   13   14 1
  29   13   15 1
  30   14   36 1
  31   14   37 1
  32   14   38 1
  33   15   39 1
  34   15   40 1
  35   15   41 1
  36   16   17 ar
  37   16   21 ar
  38   17   18 ar
  39   17   42 1
  40   18   19 ar
  41   18   43 1
  42   19   20 ar
  43   19   22 1
  44   20   21 ar
  45   20   23 1
  46   21   44 1

#	End of record

