#	Name: ASD08150786
#	Creating user name:	WinNT
#	Creation time:	15. 06. 2019 21:16

#	Modifying user name:	WinNT
#	Modification time:	15. 06. 2019 21:16

#	Program:	/corina/corina34_cracker 3.40 0067  02.08.2006

@<TRIPOS>MOLECULE
ASD08150786
  46   47    0    0    0
SMALL
NO_CHARGES


@<TRIPOS>ATOM
   1 C1            -0.0174     1.3320     0.1140 C.2     
   2 N2            -0.0007     0.0025     0.2068 N.2     
   3 C3             1.1325    -0.6707     0.2939 C.2     
   4 C4             2.3480     0.0113     0.2899 C.2     
   5 C5             2.3333     1.4188     0.1919 C.2     
   6 N6             1.1443     2.0531     0.1050 N.am    
   7 C7            -1.2508     2.0012     0.0181 C.2     
   8 C8            -1.2710     3.3608    -0.0769 C.2     
   9 C9            -0.0631     4.0722    -0.0777 C.2     
  10 C10            1.1134     3.4117     0.0093 C.2     
  11 O11            3.3764     2.0516     0.1860 O.2     
  12 C12            2.4054     4.1875     0.0017 C.3     
  13 C13            3.6287    -0.7261     0.3872 C.ar    
  14 C14            4.5285    -0.7098    -0.6784 C.ar    
  15 C15            5.7217    -1.3999    -0.5813 C.ar    
  16 C16            6.0237    -2.1066     0.5721 C.ar    
  17 C17            5.1339    -2.1256     1.6305 C.ar    
  18 C18            3.9421    -1.4348     1.5470 C.ar    
  19 F19            6.5948    -1.3862    -1.6122 F       
  20 C20            1.1110    -2.1740     0.3978 C.3     
  21 C21            0.4483    -2.5848     1.7142 C.3     
  22 N22            0.3524    -2.7303    -0.7253 N.2     
  23 N23            0.7323    -2.6074    -1.7760 N.1     
  24 N24            1.1122    -2.4844    -2.8266 N.pl3   
  25 H25           -2.1748     1.4421     0.0194 H       
  26 H26           -2.2115     3.8866    -0.1515 H       
  27 H27           -0.0722     5.1495    -0.1527 H       
  28 H28            3.0128     3.8734    -0.8471 H       
  29 H29            2.1892     5.2526    -0.0805 H       
  30 H30            2.9488     3.9974     0.9274 H       
  31 H31            4.2931    -0.1594    -1.5773 H       
  32 H32            6.9572    -2.6449     0.6443 H       
  33 H33            5.3745    -2.6783     2.5267 H       
  34 H34            3.2509    -1.4466     2.3767 H       
  35 H35            2.1320    -2.5547     0.3706 H       
  36 H36           -0.5727    -2.2041     1.7413 H       
  37 H37            0.4328    -3.6721     1.7893 H       
  38 H38            1.0127    -2.1709     2.5498 H       
  39 C39           13.1287    12.2409     8.6966 C.2     
  40 C40           13.1491    10.7340     8.6883 C.3     
  41 O41           14.1667    12.8592     8.6900 O.2     
  42 O42           11.9572    12.8961     8.7057 O.3     
  43 F43           14.4742    10.2857     8.6732 F       
  44 F44           12.5069    10.2526     9.8342 F       
  45 F45           12.4851    10.2649     7.5498 F       
  46 H46           11.9947    13.8624     8.7108 H       
@<TRIPOS>BOND
   1    1    2 2
   2    1    6 1
   3    1    7 1
   4    2    3 1
   5    3    4 2
   6    3   20 1
   7    4    5 1
   8    4   13 1
   9    5    6 am
  10    5   11 2
  11    6   10 1
  12    7    8 2
  13    7   25 1
  14    8    9 1
  15    8   26 1
  16    9   10 2
  17    9   27 1
  18   10   12 1
  19   12   28 1
  20   12   29 1
  21   12   30 1
  22   13   14 ar
  23   13   18 ar
  24   14   15 ar
  25   14   31 1
  26   15   16 ar
  27   15   19 1
  28   16   17 ar
  29   16   32 1
  30   17   18 ar
  31   17   33 1
  32   18   34 1
  33   20   21 1
  34   20   22 1
  35   20   35 1
  36   21   36 1
  37   21   37 1
  38   21   38 1
  39   22   23 2
  40   23   24 2
  41   39   40 1
  42   39   41 2
  43   39   42 1
  44   40   43 1
  45   40   44 1
  46   40   45 1
  47   42   46 1

#	End of record

