#	Name: ASD01882201
#	Creating user name:	WinNT
#	Creation time:	15. 06. 2019 19:44

#	Modifying user name:	WinNT
#	Modification time:	15. 06. 2019 19:44

#	Program:	/corina/corina34_cracker 3.40 0067  02.08.2006

@<TRIPOS>MOLECULE
ASD01882201
  41   43    0    0    0
SMALL
NO_CHARGES


@<TRIPOS>ATOM
   1 N1            -0.0178     1.4608     0.0101 N.pl3   
   2 C2            -0.0679    -0.0034     0.0094 C.3     
   3 C3            -1.2678    -0.6695     0.6856 C.3     
   4 C4            -1.1502    -0.6728    -0.8399 C.3     
   5 C5             1.1914     2.1150    -0.1958 C.ar    
   6 C6             1.2259     3.5063    -0.2720 C.ar    
   7 C7             2.4226     4.1556    -0.4759 C.ar    
   8 C8             3.6020     3.4189    -0.6063 C.ar    
   9 C9             3.5646     2.0255    -0.5296 C.ar    
  10 C10            2.3670     1.3801    -0.3200 C.ar    
  11 O11            6.2660     3.5658    -0.9942 O.3     
  12 B12            4.9680     4.1569    -0.8393 Du      
  13 O13            5.1916     5.5702    -0.9446 O.3     
  14 C14            6.1746     5.7074    -1.9922 C.3     
  15 C15            6.9031     4.3484    -2.0258 C.3     
  16 C16            8.3896     4.5325    -1.7139 C.3     
  17 C17            6.7223     3.6802    -3.3902 C.3     
  18 C18            5.4902     5.9786    -3.3334 C.3     
  19 C19            7.1575     6.8310    -1.6570 C.3     
  20 Cl20          -0.2409     4.4207    -0.1103 Cl      
  21 H21           -0.8290     1.9737     0.1502 H       
  22 H22            0.8960    -0.5068     0.0851 H       
  23 H23           -1.0935    -1.6114     1.2058 H       
  24 H24           -2.0200    -0.0184     1.1310 H       
  25 H25           -1.8250    -0.0239    -1.3981 H       
  26 H26           -0.8985    -1.6168    -1.3233 H       
  27 H27            2.4493     5.2336    -0.5353 H       
  28 H28            4.4757     1.4543    -0.6302 H       
  29 H29            2.3389     0.3024    -0.2559 H       
  30 H30            8.8781     3.5585    -1.6843 H       
  31 H31            8.8500     5.1465    -2.4879 H       
  32 H32            8.4999     5.0237    -0.7471 H       
  33 H33            5.6589     3.5714    -3.6034 H       
  34 H34            7.1862     4.2960    -4.1607 H       
  35 H35            7.1929     2.6971    -3.3786 H       
  36 H36            4.9327     6.9134    -3.2743 H       
  37 H37            6.2438     6.0539    -4.1173 H       
  38 H38            4.8063     5.1618    -3.5641 H       
  39 H39            7.6473     6.6141    -0.7078 H       
  40 H40            7.9076     6.9045    -2.4445 H       
  41 H41            6.6178     7.7749    -1.5801 H       
@<TRIPOS>BOND
   1    1    2 1
   2    1    5 1
   3    1   21 1
   4    2    3 1
   5    2    4 1
   6    2   22 1
   7    3    4 1
   8    3   23 1
   9    3   24 1
  10    4   25 1
  11    4   26 1
  12    5    6 ar
  13    5   10 ar
  14    6    7 ar
  15    6   20 1
  16    7    8 ar
  17    7   27 1
  18    8    9 ar
  19    8   12 1
  20    9   10 ar
  21    9   28 1
  22   10   29 1
  23   11   12 1
  24   11   15 1
  25   12   13 1
  26   13   14 1
  27   14   15 1
  28   14   18 1
  29   14   19 1
  30   15   16 1
  31   15   17 1
  32   16   30 1
  33   16   31 1
  34   16   32 1
  35   17   33 1
  36   17   34 1
  37   17   35 1
  38   18   36 1
  39   18   37 1
  40   18   38 1
  41   19   39 1
  42   19   40 1
  43   19   41 1

#	End of record

