#	Name: ASD01913796
#	Creating user name:	WinNT
#	Creation time:	15. 06. 2019 20:02

#	Modifying user name:	WinNT
#	Modification time:	15. 06. 2019 20:02

#	Program:	/corina/corina34_cracker 3.40 0067  02.08.2006

@<TRIPOS>MOLECULE
ASD01913796
  39   42    0    0    0
SMALL
NO_CHARGES


@<TRIPOS>ATOM
   1 C1            -0.0056     1.3610     0.1963 C.ar    
   2 C2            -0.0014     0.0017    -0.0631 C.ar    
   3 C3             1.1884    -0.6574    -0.3177 C.ar    
   4 C4             2.3798     0.0373    -0.3151 C.ar    
   5 C5             2.3834     1.4102    -0.0544 C.ar    
   6 C6             1.1780     2.0690     0.2023 C.ar    
   7 C7             3.6165     2.1384    -0.0495 C.1     
   8 C8             4.6274     2.7353    -0.0455 C.1     
   9 C9             5.8604     3.4635    -0.0405 C.ar    
  10 C10            5.8724     4.8419     0.2203 C.ar    
  11 C11            8.2483     4.7810    -0.0487 C.ar    
  12 N12            8.2051     3.4785    -0.2857 N.ar    
  13 C13            7.0699     2.8111    -0.2896 C.ar    
  14 C14            7.0859     5.4998     0.2139 C.ar    
  15 N15            9.4756     5.4396    -0.0561 N.am    
  16 C16            9.6454     6.7684    -0.0506 C.2     
  17 O17           10.9269     7.1505    -0.0595 O.3     
  18 C18           11.7870     5.9754    -0.0723 C.3     
  19 C19           10.7938     4.7886    -0.0648 C.3     
  20 O20            8.7193     7.5549    -0.0393 O.2     
  21 C21           12.5613     5.8967     1.2587 C.3     
  22 C22           11.6207     5.1077     2.2024 C.3     
  23 C23           11.0123     4.0456     1.2683 C.3     
  24 H24           12.4432     5.9594    -0.9425 H       
  25 H25           10.9192     4.1426    -0.9337 H       
  26 H26           -0.9384     1.8695     0.3902 H       
  27 H27           -0.9313    -0.5475    -0.0664 H       
  28 H28            1.1840    -1.7185    -0.5187 H       
  29 H29            3.3077    -0.4784    -0.5137 H       
  30 H30            1.1732     3.1299     0.4042 H       
  31 H31            4.9549     5.3752     0.4207 H       
  32 H32            7.0743     1.7493    -0.4870 H       
  33 H33            7.1328     6.5608     0.4102 H       
  34 H34           13.5008     5.3612     1.1220 H       
  35 H35           12.7451     6.8964     1.6523 H       
  36 H36           12.1867     4.6345     3.0048 H       
  37 H37           10.8450     5.7580     2.6069 H       
  38 H38           10.0607     3.6903     1.6638 H       
  39 H39           11.7046     3.2143     1.1344 H       
@<TRIPOS>BOND
   1    1    2 ar
   2    1    6 ar
   3    1   26 1
   4    2    3 ar
   5    2   27 1
   6    3    4 ar
   7    3   28 1
   8    4    5 ar
   9    4   29 1
  10    5    6 ar
  11    5    7 1
  12    6   30 1
  13    7    8 3
  14    8    9 1
  15    9   10 ar
  16    9   13 ar
  17   10   14 ar
  18   10   31 1
  19   11   12 ar
  20   11   15 1
  21   11   14 ar
  22   12   13 ar
  23   13   32 1
  24   14   33 1
  25   15   16 am
  26   15   19 1
  27   16   17 1
  28   16   20 2
  29   17   18 1
  30   18   19 1
  31   18   21 1
  32   18   24 1
  33   19   25 1
  34   19   23 1
  35   21   22 1
  36   21   34 1
  37   21   35 1
  38   22   23 1
  39   22   36 1
  40   22   37 1
  41   23   38 1
  42   23   39 1

#	End of record

