#	Name: ASD06610089
#	Creating user name:	WinNT
#	Creation time:	15. 06. 2019 21:07

#	Modifying user name:	WinNT
#	Modification time:	15. 06. 2019 21:07

#	Program:	/corina/corina34_cracker 3.40 0067  02.08.2006

@<TRIPOS>MOLECULE
ASD06610089
 342  343    0    0    0
SMALL
NO_CHARGES


@<TRIPOS>ATOM
   1 C1           -20.0613     1.4563    15.7376 C.2     
   2 O2           -19.8483     0.2636    15.6827 O.2     
   3 N3           -18.1606     1.5955    17.2452 N.3     
   4 C4           -19.0480     2.3744    16.3712 C.3     
   5 C5           -18.2201     3.0524    15.2777 C.3     
   6 C6           -17.2771     4.0762    15.9129 C.3     
   7 C7           -16.4616     4.7440    14.8358 C.2     
   8 O8           -16.6191     4.4320    13.6750 O.2     
   9 N9           -15.5572     5.6882    15.1631 N.am    
  10 C10          -23.0106     1.8463    13.6132 C.2     
  11 O11          -22.7997     3.0283    13.4418 O.2     
  12 N12          -21.2018     1.9614    15.2269 N.am    
  13 C13          -22.1842     1.0697    14.6056 C.3     
  14 C14          -23.0983     0.4867    15.6851 C.3     
  15 C15          -22.2486    -0.1954    16.7592 C.3     
  16 O16          -23.8637     1.5371    16.2793 O.3     
  17 C17          -26.2462     1.4159    12.0583 C.2     
  18 O18          -26.4692     0.4141    12.7046 O.2     
  19 N19          -23.9840     1.2274    12.9161 N.am    
  20 C20          -24.8584     2.0027    12.0326 C.3     
  21 C21          -24.3113     1.9559    10.6045 C.3     
  22 C22          -24.0979     0.4993    10.1876 C.3     
  23 C23          -25.4514    -0.2079    10.0940 C.3     
  24 C24          -22.9781     2.7042    10.5443 C.3     
  25 C25          -29.2728     1.8278    10.0501 C.2     
  26 O26          -28.7296     2.5999     9.2886 O.2     
  27 N27          -27.2397     2.0044    11.3632 N.am    
  28 C28          -28.5611     1.3752    11.2990 C.3     
  29 C29          -29.3789     1.7800    12.5271 C.3     
  30 C30          -32.5641     1.1675     8.4992 C.2     
  31 O31          -32.9199     0.4130     9.3795 O.2     
  32 N32          -30.5129     1.3746     9.7793 N.am    
  33 C33          -31.2047     1.8146     8.5652 C.3     
  34 C34          -35.1582     0.7251     5.9619 C.2     
  35 O35          -34.4468     1.1561     5.0792 O.2     
  36 N36          -33.3843     1.4271     7.4617 N.am    
  37 C37          -34.7058     0.7980     7.3975 C.3     
  38 C38          -35.7055     1.6277     8.2057 C.3     
  39 C39          -35.3205     1.5988     9.6624 C.2     
  40 C40          -35.1021     2.6730    10.4447 C.2     
  41 N41          -34.7794     2.1988    11.6875 N.pl3   
  42 C42          -34.8119     0.8503    11.6214 C.2     
  43 N43          -35.1411     0.4987    10.4086 N.2     
  44 C44          -38.2984     0.0600     4.2127 C.2     
  45 O45          -38.9407     0.0815     5.2413 O.2     
  46 N46          -36.3533     0.1808     5.6587 N.am    
  47 C47          -36.7931     0.1099     4.2631 C.3     
  48 C48          -36.2189    -1.1494     3.6108 C.3     
  49 C49          -34.7169    -1.0437     3.5506 C.ar    
  50 C50          -33.9482    -1.5157     4.5981 C.ar    
  51 C51          -32.5704    -1.4187     4.5429 C.ar    
  52 C52          -31.9612    -0.8501     3.4400 C.ar    
  53 C53          -32.7298    -0.3788     2.3921 C.ar    
  54 C54          -34.1074    -0.4798     2.4454 C.ar    
  55 C55          -40.8323    -0.7244     1.6973 C.2     
  56 O56          -40.0037    -1.1205     0.9052 O.2     
  57 N57          -38.9310    -0.0086     3.0246 N.am    
  58 C58          -40.3944    -0.0571     2.9756 C.3     
  59 C59          -40.9538     1.3661     3.0255 C.3     
  60 C60          -40.6148     2.0002     4.3760 C.3     
  61 C61          -41.1742     3.4234     4.4260 C.3     
  62 N62          -40.8497     4.0306     5.7191 N.pl3   
  63 C63          -41.2524     5.3157     5.9956 C.2     
  64 N64          -40.9636     5.8559     7.1461 N.2     
  65 N65          -41.9597     6.0310     5.0585 N.pl3   
  66 C66          -43.9570    -1.0624    -0.1695 C.2     
  67 O67          -44.5328    -0.2659     0.5411 O.2     
  68 N68          -42.1449    -0.8811     1.4343 N.am    
  69 C69          -42.5706    -1.5298     0.1917 C.3     
  70 C70          -42.5783    -3.0475     0.3854 C.3     
  71 C71          -41.1496    -3.5378     0.6290 C.3     
  72 C72          -41.1573    -5.0554     0.8227 C.3     
  73 C73          -39.7287    -5.5457     1.0664 C.3     
  74 N74          -39.7361    -7.0029     1.2523 N.3     
  75 C75          -46.5803    -2.1181    -2.4862 C.2     
  76 O76          -45.9935    -3.1402    -2.7726 O.2     
  77 N77          -44.5571    -1.5296    -1.2822 N.am    
  78 C78          -45.9049    -1.0753    -1.6333 C.3     
  79 C79          -45.8136     0.2389    -2.4114 C.3     
  80 C80          -45.2421     1.3302    -1.5039 C.3     
  81 C81          -45.1521     2.6247    -2.2703 C.2     
  82 O82          -45.5085     2.6698    -3.4239 O.2     
  83 O83          -44.6761     3.7275    -1.6713 O.3     
  84 C84          -49.5530    -2.2745    -4.6079 C.2     
  85 O85          -49.7416    -1.0791    -4.5275 O.2     
  86 N86          -47.8363    -1.9149    -2.9308 N.am    
  87 C87          -48.4928    -2.9287    -3.7599 C.3     
  88 C88          -49.1389    -3.9836    -2.8596 C.3     
  89 C89          -48.0498    -4.7335    -2.0900 C.3     
  90 C90          -48.6959    -5.7884    -1.1897 C.3     
  91 N91          -47.6530    -6.5065    -0.4527 N.pl3   
  92 C92          -47.9966    -7.5078     0.4244 C.2     
  93 N93          -47.0688    -8.1467     1.0801 N.2     
  94 N94          -49.3189    -7.8353     0.6100 N.pl3   
  95 C95          -52.5430    -3.3725    -6.2888 C.2     
  96 O96          -52.4281    -4.4921    -5.8370 O.2     
  97 N97          -50.2916    -3.0178    -5.4555 N.am    
  98 C98          -51.3932    -2.4024    -6.1999 C.3     
  99 C99          -50.9185    -2.0437    -7.6095 C.3     
 100 C100         -50.3062    -3.2797    -8.2715 C.3     
 101 C101         -51.4051    -4.3082    -8.5463 C.3     
 102 C102         -49.8667    -0.9356    -7.5269 C.3     
 103 C103         -55.6570    -3.5416    -8.1960 C.2     
 104 O104         -55.4021    -2.5265    -8.8088 O.2     
 105 N105         -53.6991    -2.9958    -6.8703 N.am    
 106 C106         -54.7814    -3.9674    -7.0458 C.3     
 107 C107         -55.6176    -4.0360    -5.7664 C.3     
 108 C108         -54.7600    -4.5872    -4.6255 C.3     
 109 C109         -55.5836    -4.6548    -3.3653 C.2     
 110 O110         -56.7381    -4.2987    -3.3784 O.2     
 111 O111         -55.0347    -5.1106    -2.2284 O.3     
 112 C112         -58.6880    -4.8745    -9.8424 C.2     
 113 O113         -58.7630    -5.8377    -9.1093 O.2     
 114 N114         -56.7234    -4.2889    -8.5437 N.am    
 115 C115         -57.5746    -3.8750    -9.6619 C.3     
 116 C116         -61.1334    -5.5902   -12.4747 C.2     
 117 O117         -61.0758    -4.5204   -13.0430 O.2     
 118 N118         -59.6003    -4.6980   -10.8186 N.am    
 119 C119         -60.6170    -5.7235   -11.0652 C.3     
 120 C120         -61.7730    -5.5431   -10.0793 C.3     
 121 C121         -62.7472    -6.7149   -10.2157 C.3     
 122 C122         -62.0512    -8.0091    -9.7898 C.3     
 123 C123         -63.9649    -6.4725    -9.3216 C.3     
 124 C124         -63.1486    -7.5859   -14.7811 C.2     
 125 O125         -63.5065    -8.3416   -13.9026 O.2     
 126 N126         -61.6593    -6.6599   -13.1037 N.am    
 127 C127         -62.0909    -6.5500   -14.4993 C.3     
 128 C128         -60.8932    -6.7797   -15.4232 C.3     
 129 C129         -59.8735    -5.6563   -15.2252 C.3     
 130 C130         -58.6758    -5.8859   -16.1491 C.3     
 131 N131         -57.6995    -4.8102   -15.9594 N.pl3   
 132 C132         -56.5333    -4.8041   -16.6875 C.2     
 133 N133         -56.2963    -5.7554   -17.5465 N.2     
 134 N134         -55.6171    -3.7946   -16.5096 N.pl3   
 135 C135         -64.0653    -9.9858   -16.6434 C.2     
 136 O136         -62.8600   -10.0673   -16.6686 O.2     
 137 N137         -63.6966    -7.6725   -16.0093 N.am    
 138 C138         -64.7248    -8.6795   -16.2833 C.3     
 139 C139         -65.5994    -8.2116   -17.4482 C.3     
 140 C140         -66.3653    -6.9525   -17.0373 C.3     
 141 C141         -67.2399    -6.4846   -18.2022 C.3     
 142 C142         -68.0059    -5.2255   -17.7912 C.3     
 143 N143         -68.8456    -4.7763   -18.9097 N.3     
 144 O144         -64.8167   -11.0588   -16.9361 O.3     
 145 C145         -14.8279     6.2855    14.1998 C.2     
 146 O146         -14.9855     5.9735    13.0390 O.2     
 147 C147          -1.8372    18.4279     8.2846 C.3     
 148 C148          -2.8639    17.3561     7.9130 C.3     
 149 C149          -3.5486    16.8441     9.1819 C.3     
 150 C150          -4.5753    15.7723     8.8103 C.3     
 151 C151          -5.2599    15.2603    10.0792 C.3     
 152 C152          -6.2866    14.1885     9.7077 C.3     
 153 C153          -6.9713    13.6765    10.9765 C.3     
 154 C154          -7.9980    12.6046    10.6050 C.3     
 155 C155          -8.6826    12.0926    11.8738 C.3     
 156 C156          -9.7093    11.0208    11.5023 C.3     
 157 C157         -10.3940    10.5088    12.7711 C.3     
 158 C158         -11.4207     9.4370    12.3996 C.3     
 159 C159         -12.1053     8.9250    13.6684 C.3     
 160 C160         -13.1320     7.8532    13.2969 C.3     
 161 C161         -13.8167     7.3412    14.5658 C.3     
 162 H162         -18.6743     1.1901    18.0132 H       
 163 H163         -17.6710     0.8847    16.7224 H       
 164 H164         -19.5633     3.1332    16.9600 H       
 165 H165         -17.6360     2.3014    14.7458 H       
 166 H166         -18.8862     3.5572    14.5779 H       
 167 H167         -17.8612     4.8272    16.4447 H       
 168 H168         -16.6109     3.5714    16.6126 H       
 169 H169         -15.4312     5.9378    16.0919 H       
 170 H170         -21.3722     2.9153    15.2708 H       
 171 H171         -21.6660     0.2598    14.0921 H       
 172 H172         -23.7711    -0.2437    15.2359 H       
 173 H173         -21.6648    -0.9966    16.3060 H       
 174 H174         -21.5758     0.5350    17.2084 H       
 175 H175         -22.8999    -0.6107    17.5282 H       
 176 H176         -24.4670     1.2396    16.9740 H       
 177 H177         -24.1056     0.2687    12.9994 H       
 178 H178         -24.8949     3.0372    12.3740 H       
 179 H179         -25.0234     2.4272     9.9270 H       
 180 H180         -23.6038     0.4681     9.2165 H       
 181 H181         -23.4758    -0.0032    10.9282 H       
 182 H182         -25.8558    -0.3526    11.0958 H       
 183 H183         -26.1401     0.4014     9.5087 H       
 184 H184         -25.3227    -1.1764     9.6108 H       
 185 H185         -22.2362     2.1731    11.1406 H       
 186 H186         -22.6397     2.7609     9.5097 H       
 187 H187         -23.1087     3.7115    10.9397 H       
 188 H188         -27.0797     2.8445    10.9054 H       
 189 H189         -28.4470     0.2914    11.2796 H       
 190 H190         -29.4931     2.8639    12.5465 H       
 191 H191         -30.3622     1.3119    12.4793 H       
 192 H192         -28.8642     1.4527    13.4304 H       
 193 H193         -30.9473     0.7572    10.3883 H       
 194 H194         -30.6221     1.5262     7.6903 H       
 195 H195         -31.3188     2.8985     8.5846 H       
 196 H196         -33.0997     2.0305     6.7576 H       
 197 H197         -34.6496    -0.2084     7.8123 H       
 198 H198         -35.6964     2.6572     7.8479 H       
 199 H199         -36.7051     1.2101     8.0857 H       
 200 H200         -35.1685     3.7094    10.1483 H       
 201 H201         -34.5670     2.7317    12.4697 H       
 202 H202         -34.6039     0.1749    12.4381 H       
 203 H203         -36.9223    -0.1640     6.3646 H       
 204 H204         -36.4406     0.9903     3.7259 H       
 205 H205         -36.4984    -2.0232     4.1995 H       
 206 H206         -36.6169    -1.2492     2.6010 H       
 207 H207         -34.4242    -1.9600     5.4597 H       
 208 H208         -31.9699    -1.7869     5.3616 H       
 209 H209         -30.8847    -0.7736     3.3972 H       
 210 H210         -32.2538     0.0658     1.5306 H       
 211 H211         -34.7077    -0.1149     1.6251 H       
 212 H212         -38.4173    -0.0258     2.2019 H       
 213 H213         -40.7678    -0.6244     3.8280 H       
 214 H214         -40.5115     1.9587     2.2247 H       
 215 H215         -42.0361     1.3357     2.8998 H       
 216 H216         -41.0571     1.4076     5.1769 H       
 217 H217         -39.5325     2.0306     4.5017 H       
 218 H218         -40.7320     4.0159     3.6251 H       
 219 H219         -42.2565     3.3930     4.3003 H       
 220 H220         -40.3507     3.5259     6.3803 H       
 221 H221         -41.2477     6.7626     7.3411 H       
 222 H222         -42.1746     5.6290     4.2022 H       
 223 H223         -42.2438     6.9377     5.2535 H       
 224 H224         -42.8076    -0.5643     2.0678 H       
 225 H225         -41.8791    -1.2693    -0.6096 H       
 226 H226         -43.2008    -3.3011     1.2434 H       
 227 H227         -42.9792    -3.5258    -0.5083 H       
 228 H228         -40.5272    -3.2841    -0.2291 H       
 229 H229         -40.7488    -3.0595     1.5227 H       
 230 H230         -41.7798    -5.3091     1.6808 H       
 231 H231         -41.5582    -5.5337    -0.0710 H       
 232 H232         -39.1062    -5.2921     0.2083 H       
 233 H233         -39.3278    -5.0674     1.9600 H       
 234 H234         -38.8032    -7.3514     1.4150 H       
 235 H235         -40.3572    -7.2686     2.0017 H       
 236 H236         -44.0967    -2.1667    -1.8505 H       
 237 H237         -46.4843    -0.9192    -0.7233 H       
 238 H238         -45.1612     0.1056    -3.2744 H       
 239 H239         -46.8079     0.5311    -2.7492 H       
 240 H240         -45.8945     1.4635    -0.6409 H       
 241 H241         -44.2478     1.0381    -1.1661 H       
 242 H242         -44.6374     4.5341    -2.2033 H       
 243 H243         -48.3055    -1.0975    -2.7018 H       
 244 H244         -47.7542    -3.4046    -4.4049 H       
 245 H245         -49.8122    -3.4963    -2.1544 H       
 246 H246         -49.7019    -4.6882    -3.4718 H       
 247 H247         -47.3765    -5.2208    -2.7952 H       
 248 H248         -47.4868    -4.0289    -1.4778 H       
 249 H249         -49.3692    -5.3012    -0.4844 H       
 250 H250         -49.2589    -6.4930    -1.8018 H       
 251 H251         -46.7201    -6.2754    -0.5837 H       
 252 H252         -47.3112    -8.8532     1.6989 H       
 253 H253         -50.0094    -7.3599     0.1220 H       
 254 H254         -49.5614    -8.5418     1.2289 H       
 255 H255         -50.0938    -3.9601    -5.5727 H       
 256 H256         -51.7192    -1.4986    -5.6853 H       
 257 H257         -51.7659    -1.6970    -8.2010 H       
 258 H258         -49.8342    -2.9925    -9.2111 H       
 259 H259         -49.5590    -3.7148    -7.6077 H       
 260 H260         -51.7724    -4.7087    -7.6014 H       
 261 H261         -52.2252    -3.8295    -9.0813 H       
 262 H262         -51.0005    -5.1192    -9.1518 H       
 263 H263         -48.9700    -1.3213    -7.0420 H       
 264 H264         -49.6183    -0.5948    -8.5320 H       
 265 H265         -50.2627    -0.1013    -6.9479 H       
 266 H266         -53.8145    -2.0813    -7.1725 H       
 267 H267         -54.3575    -4.9494    -7.2559 H       
 268 H268         -55.9682    -3.0370    -5.5074 H       
 269 H269         -56.4737    -4.6914    -5.9266 H       
 270 H270         -54.4094    -5.5862    -4.8844 H       
 271 H271         -53.9038    -3.9319    -4.4653 H       
 272 H272         -55.6024    -5.1354    -1.4459 H       
 273 H273         -56.9272    -5.1008    -8.0536 H       
 274 H274         -56.9789    -3.8261   -10.5733 H       
 275 H275         -57.9985    -2.8930    -9.4517 H       
 276 H276         -59.5837    -3.8919   -11.3579 H       
 277 H277         -60.1763    -6.7115   -10.9316 H       
 278 H278         -61.3818    -5.5123    -9.0624 H       
 279 H279         -62.2937    -4.6105   -10.2966 H       
 280 H280         -63.0697    -6.8003   -11.2534 H       
 281 H281         -61.6446    -7.8895    -8.7856 H       
 282 H282         -62.7710    -8.8276    -9.7953 H       
 283 H283         -61.2420    -8.2323   -10.4852 H       
 284 H284         -64.4607    -5.5505    -9.6250 H       
 285 H285         -64.6589    -7.3074    -9.4188 H       
 286 H286         -63.6423    -6.3871    -8.2839 H       
 287 H287         -61.7519    -7.5026   -12.6323 H       
 288 H288         -62.5004    -5.5554   -14.6757 H       
 289 H289         -60.4295    -7.7372   -15.1858 H       
 290 H290         -61.2299    -6.7861   -16.4599 H       
 291 H291         -60.3372    -4.6988   -15.4626 H       
 292 H292         -59.5368    -5.6498   -14.1885 H       
 293 H293         -58.2121    -6.8434   -15.9117 H       
 294 H294         -59.0125    -5.8924   -17.1857 H       
 295 H295         -57.8759    -4.1023   -15.3202 H       
 296 H296         -55.4735    -5.7511   -18.0602 H       
 297 H297         -55.7935    -3.0867   -15.8704 H       
 298 H298         -54.7943    -3.7904   -17.0233 H       
 299 H299         -63.4103    -7.0681   -16.7119 H       
 300 H300         -65.3438    -8.8173   -15.3967 H       
 301 H301         -64.9691    -7.9887   -18.3091 H       
 302 H302         -66.3071    -8.9982   -17.7100 H       
 303 H303         -66.9957    -7.1754   -16.1764 H       
 304 H304         -65.6576    -6.1659   -16.7754 H       
 305 H305         -66.6096    -6.2617   -19.0631 H       
 306 H306         -67.9476    -7.2712   -18.4640 H       
 307 H307         -68.6362    -5.4484   -16.9304 H       
 308 H308         -67.2982    -4.4389   -17.5294 H       
 309 H309         -69.3621    -3.9453   -18.6631 H       
 310 H310         -68.2919    -4.6249   -19.7395 H       
 311 H311         -64.3486   -11.8745   -17.1611 H       
 312 H312          -2.3405    19.2552     8.7849 H       
 313 H313          -1.0903    17.9994     8.9528 H       
 314 H314          -1.3495    18.7927     7.3806 H       
 315 H315          -3.6109    17.7846     7.2448 H       
 316 H316          -2.3606    16.5288     7.4126 H       
 317 H317          -2.8016    16.4156     9.8501 H       
 318 H318          -4.0519    17.6714     9.6823 H       
 319 H319          -5.3222    16.2008     8.1421 H       
 320 H320          -4.0720    14.9450     8.3100 H       
 321 H321          -4.5130    14.8318    10.7474 H       
 322 H322          -5.7632    16.0876    10.5796 H       
 323 H323          -7.0336    14.6170     9.0394 H       
 324 H324          -5.7833    13.3612     9.2073 H       
 325 H325          -6.2243    13.2480    11.6448 H       
 326 H326          -7.4746    14.5038    11.4769 H       
 327 H327          -8.7449    13.0331     9.9367 H       
 328 H328          -7.4947    11.7773    10.1046 H       
 329 H329          -7.9357    11.6641    12.5421 H       
 330 H330          -9.1859    12.9199    12.3742 H       
 331 H331         -10.4563    11.4493    10.8340 H       
 332 H332          -9.2060    10.1935    11.0019 H       
 333 H333          -9.6470    10.0803    13.4394 H       
 334 H334         -10.8973    11.3361    13.2715 H       
 335 H335         -12.1676     9.8655    11.7313 H       
 336 H336         -10.9174     8.6097    11.8992 H       
 337 H337         -11.3584     8.4965    14.3367 H       
 338 H338         -12.6086     9.7523    14.1688 H       
 339 H339         -13.8790     8.2817    12.6287 H       
 340 H340         -12.6287     7.0259    12.7965 H       
 341 H341         -14.3200     8.1685    15.0661 H       
 342 H342         -13.0697     6.9127    15.2340 H       
@<TRIPOS>BOND
   1    1    2 2
   2    1    4 1
   3    1   12 am
   4    3    4 1
   5    3  162 1
   6    3  163 1
   7    4    5 1
   8    4  164 1
   9    5    6 1
  10    5  165 1
  11    5  166 1
  12    6    7 1
  13    6  167 1
  14    6  168 1
  15    7    8 2
  16    7    9 am
  17    9  145 am
  18    9  169 1
  19   10   11 2
  20   10   13 1
  21   10   19 am
  22   12   13 1
  23   12  170 1
  24   13   14 1
  25   13  171 1
  26   14   15 1
  27   14   16 1
  28   14  172 1
  29   15  173 1
  30   15  174 1
  31   15  175 1
  32   16  176 1
  33   17   18 2
  34   17   20 1
  35   17   27 am
  36   19   20 1
  37   19  177 1
  38   20   21 1
  39   20  178 1
  40   21   22 1
  41   21   24 1
  42   21  179 1
  43   22   23 1
  44   22  180 1
  45   22  181 1
  46   23  182 1
  47   23  183 1
  48   23  184 1
  49   24  185 1
  50   24  186 1
  51   24  187 1
  52   25   26 2
  53   25   28 1
  54   25   32 am
  55   27   28 1
  56   27  188 1
  57   28   29 1
  58   28  189 1
  59   29  190 1
  60   29  191 1
  61   29  192 1
  62   30   31 2
  63   30   33 1
  64   30   36 am
  65   32   33 1
  66   32  193 1
  67   33  194 1
  68   33  195 1
  69   34   35 2
  70   34   37 1
  71   34   46 am
  72   36   37 1
  73   36  196 1
  74   37   38 1
  75   37  197 1
  76   38   39 1
  77   38  198 1
  78   38  199 1
  79   39   40 2
  80   39   43 1
  81   40   41 1
  82   40  200 1
  83   41   42 1
  84   41  201 1
  85   42   43 2
  86   42  202 1
  87   44   45 2
  88   44   47 1
  89   44   57 am
  90   46   47 1
  91   46  203 1
  92   47   48 1
  93   47  204 1
  94   48   49 1
  95   48  205 1
  96   48  206 1
  97   49   50 ar
  98   49   54 ar
  99   50   51 ar
 100   50  207 1
 101   51   52 ar
 102   51  208 1
 103   52   53 ar
 104   52  209 1
 105   53   54 ar
 106   53  210 1
 107   54  211 1
 108   55   56 2
 109   55   58 1
 110   55   68 am
 111   57   58 1
 112   57  212 1
 113   58   59 1
 114   58  213 1
 115   59   60 1
 116   59  214 1
 117   59  215 1
 118   60   61 1
 119   60  216 1
 120   60  217 1
 121   61   62 1
 122   61  218 1
 123   61  219 1
 124   62   63 1
 125   62  220 1
 126   63   64 2
 127   63   65 1
 128   64  221 1
 129   65  222 1
 130   65  223 1
 131   66   67 2
 132   66   69 1
 133   66   77 am
 134   68   69 1
 135   68  224 1
 136   69   70 1
 137   69  225 1
 138   70   71 1
 139   70  226 1
 140   70  227 1
 141   71   72 1
 142   71  228 1
 143   71  229 1
 144   72   73 1
 145   72  230 1
 146   72  231 1
 147   73   74 1
 148   73  232 1
 149   73  233 1
 150   74  234 1
 151   74  235 1
 152   75   76 2
 153   75   78 1
 154   75   86 am
 155   77   78 1
 156   77  236 1
 157   78   79 1
 158   78  237 1
 159   79   80 1
 160   79  238 1
 161   79  239 1
 162   80   81 1
 163   80  240 1
 164   80  241 1
 165   81   82 2
 166   81   83 1
 167   83  242 1
 168   84   85 2
 169   84   87 1
 170   84   97 am
 171   86   87 1
 172   86  243 1
 173   87   88 1
 174   87  244 1
 175   88   89 1
 176   88  245 1
 177   88  246 1
 178   89   90 1
 179   89  247 1
 180   89  248 1
 181   90   91 1
 182   90  249 1
 183   90  250 1
 184   91   92 1
 185   91  251 1
 186   92   93 2
 187   92   94 1
 188   93  252 1
 189   94  253 1
 190   94  254 1
 191   95   96 2
 192   95   98 1
 193   95  105 am
 194   97   98 1
 195   97  255 1
 196   98   99 1
 197   98  256 1
 198   99  100 1
 199   99  102 1
 200   99  257 1
 201  100  101 1
 202  100  258 1
 203  100  259 1
 204  101  260 1
 205  101  261 1
 206  101  262 1
 207  102  263 1
 208  102  264 1
 209  102  265 1
 210  103  104 2
 211  103  106 1
 212  103  114 am
 213  105  106 1
 214  105  266 1
 215  106  107 1
 216  106  267 1
 217  107  108 1
 218  107  268 1
 219  107  269 1
 220  108  109 1
 221  108  270 1
 222  108  271 1
 223  109  110 2
 224  109  111 1
 225  111  272 1
 226  112  113 2
 227  112  115 1
 228  112  118 am
 229  114  115 1
 230  114  273 1
 231  115  274 1
 232  115  275 1
 233  116  117 2
 234  116  119 1
 235  116  126 am
 236  118  119 1
 237  118  276 1
 238  119  120 1
 239  119  277 1
 240  120  121 1
 241  120  278 1
 242  120  279 1
 243  121  122 1
 244  121  123 1
 245  121  280 1
 246  122  281 1
 247  122  282 1
 248  122  283 1
 249  123  284 1
 250  123  285 1
 251  123  286 1
 252  124  125 2
 253  124  127 1
 254  124  137 am
 255  126  127 1
 256  126  287 1
 257  127  128 1
 258  127  288 1
 259  128  129 1
 260  128  289 1
 261  128  290 1
 262  129  130 1
 263  129  291 1
 264  129  292 1
 265  130  131 1
 266  130  293 1
 267  130  294 1
 268  131  132 1
 269  131  295 1
 270  132  133 2
 271  132  134 1
 272  133  296 1
 273  134  297 1
 274  134  298 1
 275  135  136 2
 276  135  138 1
 277  135  144 1
 278  137  138 1
 279  137  299 1
 280  138  139 1
 281  138  300 1
 282  139  140 1
 283  139  301 1
 284  139  302 1
 285  140  141 1
 286  140  303 1
 287  140  304 1
 288  141  142 1
 289  141  305 1
 290  141  306 1
 291  142  143 1
 292  142  307 1
 293  142  308 1
 294  143  309 1
 295  143  310 1
 296  144  311 1
 297  145  146 2
 298  145  161 1
 299  147  148 1
 300  147  312 1
 301  147  313 1
 302  147  314 1
 303  148  149 1
 304  148  315 1
 305  148  316 1
 306  149  150 1
 307  149  317 1
 308  149  318 1
 309  150  151 1
 310  150  319 1
 311  150  320 1
 312  151  152 1
 313  151  321 1
 314  151  322 1
 315  152  153 1
 316  152  323 1
 317  152  324 1
 318  153  154 1
 319  153  325 1
 320  153  326 1
 321  154  155 1
 322  154  327 1
 323  154  328 1
 324  155  156 1
 325  155  329 1
 326  155  330 1
 327  156  157 1
 328  156  331 1
 329  156  332 1
 330  157  158 1
 331  157  333 1
 332  157  334 1
 333  158  159 1
 334  158  335 1
 335  158  336 1
 336  159  160 1
 337  159  337 1
 338  159  338 1
 339  160  161 1
 340  160  339 1
 341  160  340 1
 342  161  341 1
 343  161  342 1

#	End of record

