#	Name: ASD00170376
#	Creating user name:	WinNT
#	Creation time:	15. 06. 2019 18:32

#	Modifying user name:	WinNT
#	Modification time:	15. 06. 2019 18:32

#	Program:	/corina/corina34_cracker 3.40 0067  02.08.2006

@<TRIPOS>MOLECULE
ASD00170376
  32   34    0    0    0
SMALL
NO_CHARGES


@<TRIPOS>ATOM
   1 C1            -0.0117     1.3388    -0.1030 C.2     
   2 C2             0.0140     0.0010    -0.1302 C.2     
   3 C3            -1.3047    -0.5833     0.0234 C.2     
   4 C4            -2.2977     0.3543     0.1631 C.2     
   5 S5            -1.6492     1.9282     0.1172 S.3     
   6 C6            -1.5513    -2.0249     0.0288 C.2     
   7 C7            -1.5549    -2.7698     1.3069 C.ar    
   8 O8            -1.7537    -2.6119    -1.0186 O.2     
   9 C9            -1.8838    -4.1261     1.3267 C.ar    
  10 C10           -1.8849    -4.8151     2.5218 C.ar    
  11 C11           -1.5608    -4.1646     3.6992 C.ar    
  12 C12           -1.2338    -2.8202     3.6865 C.ar    
  13 C13           -1.2239    -2.1208     2.4974 C.ar    
  14 N14           -3.6366     0.0614     0.3242 N.pl3   
  15 C15            1.2244     2.2061    -0.2401 C.3     
  16 N16            2.4115     1.3714    -0.0029 N.3     
  17 C17            2.3784     0.1606    -0.8357 C.3     
  18 C18            1.3009    -0.7905    -0.3055 C.3     
  19 H19           -2.1373    -4.6350     0.4084 H       
  20 H20           -2.1395    -5.8646     2.5385 H       
  21 H21           -1.5634    -4.7085     4.6323 H       
  22 H22           -0.9822    -2.3181     4.6090 H       
  23 H23           -0.9681    -1.0716     2.4887 H       
  24 H24           -3.9427    -0.8571     0.2650 H       
  25 H25           -4.2717     0.7741     0.4965 H       
  26 H26            1.2672     2.6260    -1.2450 H       
  27 H27            1.1902     3.0107     0.4944 H       
  28 H28            3.2593     1.8954    -0.1601 H       
  29 H29            2.1477     0.4336    -1.8655 H       
  30 H30            3.3496    -0.3330    -0.7987 H       
  31 H31            1.6132    -1.2016     0.6545 H       
  32 H32            1.1412    -1.5995    -1.0183 H       
@<TRIPOS>BOND
   1    1    2 2
   2    1   15 1
   3    1    5 1
   4    2    3 1
   5    2   18 1
   6    3    4 2
   7    3    6 1
   8    4    5 1
   9    4   14 1
  10    6    7 1
  11    6    8 2
  12    7    9 ar
  13    7   13 ar
  14    9   10 ar
  15    9   19 1
  16   10   11 ar
  17   10   20 1
  18   11   12 ar
  19   11   21 1
  20   12   13 ar
  21   12   22 1
  22   13   23 1
  23   14   24 1
  24   14   25 1
  25   15   16 1
  26   15   26 1
  27   15   27 1
  28   16   17 1
  29   16   28 1
  30   17   18 1
  31   17   29 1
  32   17   30 1
  33   18   31 1
  34   18   32 1

#	End of record

