#	Name: ASD02030541
#	Creating user name:	WinNT
#	Creation time:	15. 06. 2019 20:15

#	Modifying user name:	WinNT
#	Modification time:	15. 06. 2019 20:15

#	Program:	/corina/corina34_cracker 3.40 0067  02.08.2006

@<TRIPOS>MOLECULE
ASD02030541
  58   62    0    0    0
SMALL
NO_CHARGES


@<TRIPOS>ATOM
   1 N1            -0.1623     1.6810    -0.2674 N.am    
   2 C2            -0.2372     0.2162    -0.3602 C.3     
   3 C3            -1.0473    -0.3096     0.8313 C.3     
   4 N4            -2.2964     0.4589     0.9256 N.am    
   5 C5            -2.2215     1.9237     1.0184 C.3     
   6 C6            -1.4112     2.4491    -0.1674 C.3     
   7 C7             1.0306     2.3082    -0.2683 C.2     
   8 C8             2.2804     1.5198    -0.2220 C.2     
   9 N9             3.4959     2.0039    -0.0845 N.2     
  10 N10            2.3746     0.1802    -0.3074 N.2     
  11 C11            3.6442    -0.1265    -0.2253 C.2     
  12 N12            4.3334     1.0246    -0.0861 N.pl3   
  13 O13            1.0789     3.5222    -0.3071 O.2     
  14 C14           -3.4893    -0.1684     0.9265 C.2     
  15 C15           -3.5480    -1.6488     0.8989 C.ar    
  16 O16           -4.5167     0.4801     0.9500 O.2     
  17 C17           -1.0895     3.9296     0.0462 C.3     
  18 C18           -2.2165     2.2758    -1.4567 C.3     
  19 C19            5.7250     1.1366     0.0358 C.ar    
  20 C20            6.3125     2.3866     0.1738 C.ar    
  21 C21            7.6857     2.4937     0.2942 C.ar    
  22 C22            8.4734     1.3561     0.2767 C.ar    
  23 C23            7.8899     0.1100     0.1393 C.ar    
  24 C24            6.5183    -0.0032     0.0244 C.ar    
  25 N25           -2.4648    -2.3539     1.1957 N.ar    
  26 C26           -2.4759    -3.6785     1.1825 C.ar    
  27 C27           -3.6404    -4.3782     0.8523 C.ar    
  28 C28           -4.7873    -3.6716     0.5377 C.ar    
  29 C29           -4.7422    -2.2852     0.5668 C.ar    
  30 C30           -1.2440    -4.4245     1.5199 C.2     
  31 C31           -0.0367    -3.8826     1.8604 C.2     
  32 C32            0.8507    -4.9315     2.0995 C.2     
  33 N33            0.2193    -6.0633     1.9150 N.2     
  34 N34           -1.1045    -5.7804     1.5546 N.pl3   
  35 Cl35           8.4221     4.0562     0.4670 Cl      
  36 H36           -0.7295    -0.0667    -1.2907 H       
  37 H37            0.7682    -0.2040    -0.3330 H       
  38 H38           -1.2772    -1.3644     0.6804 H       
  39 H39           -0.4714    -0.1857     1.7484 H       
  40 H40           -3.2269     2.3439     0.9912 H       
  41 H41           -1.7292     2.2066     1.9489 H       
  42 H42            4.0638    -1.1210    -0.2597 H       
  43 H43           -0.3371     4.0287     0.8285 H       
  44 H44           -0.7075     4.3559    -0.8814 H       
  45 H45           -1.9948     4.4589     0.3435 H       
  46 H46           -3.1496     2.8340    -1.3800 H       
  47 H47           -1.6370     2.6509    -2.3002 H       
  48 H48           -2.4366     1.2191    -1.6083 H       
  49 H49            5.6978     3.2745     0.1868 H       
  50 H50            9.5459     1.4417     0.3702 H       
  51 H51            8.5072    -0.7761     0.1256 H       
  52 H52            6.0636    -0.9770    -0.0826 H       
  53 H53           -3.6444    -5.4582     0.8425 H       
  54 H54           -5.6997    -4.1883     0.2788 H       
  55 H55           -5.6210    -1.7054     0.3262 H       
  56 H56            0.1902    -2.8291     1.9313 H       
  57 H57            1.8862    -4.8275     2.3882 H       
  58 H58           -1.7958    -6.4319     1.3584 H       
@<TRIPOS>BOND
   1    1    2 1
   2    1    7 am
   3    1    6 1
   4    2    3 1
   5    2   36 1
   6    2   37 1
   7    3    4 1
   8    3   38 1
   9    3   39 1
  10    4    5 1
  11    4   14 am
  12    5    6 1
  13    5   40 1
  14    5   41 1
  15    6   17 1
  16    6   18 1
  17    7    8 1
  18    7   13 2
  19    8    9 2
  20    8   10 1
  21    9   12 1
  22   10   11 2
  23   11   12 1
  24   11   42 1
  25   12   19 1
  26   14   15 1
  27   14   16 2
  28   15   25 ar
  29   15   29 ar
  30   17   43 1
  31   17   44 1
  32   17   45 1
  33   18   46 1
  34   18   47 1
  35   18   48 1
  36   19   20 ar
  37   19   24 ar
  38   20   21 ar
  39   20   49 1
  40   21   22 ar
  41   21   35 1
  42   22   23 ar
  43   22   50 1
  44   23   24 ar
  45   23   51 1
  46   24   52 1
  47   25   26 ar
  48   26   27 ar
  49   26   30 1
  50   27   28 ar
  51   27   53 1
  52   28   29 ar
  53   28   54 1
  54   29   55 1
  55   30   31 2
  56   30   34 1
  57   31   32 1
  58   31   56 1
  59   32   33 2
  60   32   57 1
  61   33   34 1
  62   34   58 1

#	End of record

