#	Name: ASD01915538
#	Creating user name:	WinNT
#	Creation time:	15. 06. 2019 20:05

#	Modifying user name:	WinNT
#	Modification time:	15. 06. 2019 20:05

#	Program:	/corina/corina34_cracker 3.40 0067  02.08.2006

@<TRIPOS>MOLECULE
ASD01915538
  49   51    0    0    0
SMALL
NO_CHARGES


@<TRIPOS>ATOM
   1 C1            -0.3421     1.4557    -0.7074 C.2     
   2 N2            -0.3495     0.1102    -0.9993 N.pl3   
   3 C3            -1.6023    -0.6542    -1.0280 C.3     
   4 C4            -2.5927    -0.0381    -0.0413 C.3     
   5 N5            -2.6820     1.4125    -0.1675 N.am    
   6 C6            -1.5808     2.1751    -0.3723 C.2     
   7 C7             0.9556     1.8754    -0.7883 C.2     
   8 C8             1.6878     0.7283    -1.1230 C.2     
   9 N9             0.8459    -0.2737    -1.2249 N.2     
  10 C10            3.1789     0.6576    -1.3296 C.3     
  11 O11            3.7492     1.9527    -1.1313 O.3     
  12 C12            5.0954     2.0636    -1.2812 C.ar    
  13 C13           -3.9926     2.0599    -0.0706 C.3     
  14 O14           -1.6146     3.3877    -0.2840 O.2     
  15 C15            5.7155     3.2918    -1.1033 C.ar    
  16 C16            5.8525     0.9476    -1.6067 C.ar    
  17 C17            7.2207     1.0630    -1.7585 C.ar    
  18 C18            7.8356     2.2894    -1.5863 C.ar    
  19 C19            7.0840     3.4020    -1.2563 C.ar    
  20 C20           -4.9553     1.4145    -1.0694 C.3     
  21 C21           -4.5409     1.8916     1.3479 C.3     
  22 C22           -3.5045     2.3889     2.3576 C.3     
  23 C23           -5.8287     2.7042     1.4966 C.3     
  24 C24           -4.8377     0.4134     1.6079 C.3     
  25 H25           -2.0237    -0.6246    -2.0328 H       
  26 H26           -1.4040    -1.6884    -0.7465 H       
  27 H27           -3.5787    -0.4682    -0.2171 H       
  28 H28           -2.2789    -0.2847     0.9730 H       
  29 H29            1.3347     2.8740    -0.6289 H       
  30 H30            3.6118    -0.0432    -0.6157 H       
  31 H31            3.3895     0.3193    -2.3441 H       
  32 H32           -3.8913     3.1212    -0.2974 H       
  33 H33            5.1287     4.1612    -0.8459 H       
  34 H34            5.3727    -0.0106    -1.7409 H       
  35 H35            7.8107     0.1944    -2.0116 H       
  36 H36            8.9054     2.3775    -1.7054 H       
  37 H37            7.5665     4.3589    -1.1226 H       
  38 H38           -5.0566     0.3531    -0.8425 H       
  39 H39           -5.9305     1.8961    -0.9972 H       
  40 H40           -4.5647     1.5343    -2.0799 H       
  41 H41           -3.2930     3.4420     2.1723 H       
  42 H42           -3.8951     2.2690     3.3681 H       
  43 H43           -2.5871     1.8100     2.2516 H       
  44 H44           -6.5670     2.3499     0.7773 H       
  45 H45           -6.2193     2.5843     2.5071 H       
  46 H46           -5.6172     3.7573     1.3114 H       
  47 H47           -3.9026    -0.1460     1.6335 H       
  48 H48           -5.3502     0.3084     2.5641 H       
  49 H49           -5.4719     0.0245     0.8112 H       
@<TRIPOS>BOND
   1    1    2 1
   2    1    7 2
   3    1    6 1
   4    2    3 1
   5    2    9 1
   6    3    4 1
   7    3   25 1
   8    3   26 1
   9    4    5 1
  10    4   27 1
  11    4   28 1
  12    5    6 am
  13    5   13 1
  14    6   14 2
  15    7    8 1
  16    7   29 1
  17    8    9 2
  18    8   10 1
  19   10   11 1
  20   10   30 1
  21   10   31 1
  22   11   12 1
  23   12   15 ar
  24   12   16 ar
  25   13   20 1
  26   13   21 1
  27   13   32 1
  28   15   19 ar
  29   15   33 1
  30   16   17 ar
  31   16   34 1
  32   17   18 ar
  33   17   35 1
  34   18   19 ar
  35   18   36 1
  36   19   37 1
  37   20   38 1
  38   20   39 1
  39   20   40 1
  40   21   22 1
  41   21   24 1
  42   21   23 1
  43   22   41 1
  44   22   42 1
  45   22   43 1
  46   23   44 1
  47   23   45 1
  48   23   46 1
  49   24   47 1
  50   24   48 1
  51   24   49 1

#	End of record

