#	Name: ASD01882271
#	Creating user name:	WinNT
#	Creation time:	15. 06. 2019 19:44

#	Modifying user name:	WinNT
#	Modification time:	15. 06. 2019 19:44

#	Program:	/corina/corina34_cracker 3.40 0067  02.08.2006

@<TRIPOS>MOLECULE
ASD01882271
  22   22    0    0    0
SMALL
NO_CHARGES


@<TRIPOS>ATOM
   1 C1            -0.0225     1.8097     0.0120 C.3     
   2 S2             0.0021    -0.0041     0.0020 S.o2    
   3 O3             0.8448    -0.4970     1.0346 O.2     
   4 O4            -1.3093    -0.5195    -0.1821 O.2     
   5 O5             0.7319    -0.3669    -1.2834 O.3     
   6 C6             2.1455    -0.1659    -1.2258 C.3     
   7 C7             2.7718    -0.5609    -2.5646 C.3     
   8 C8             4.2853    -0.3457    -2.5029 C.3     
   9 C9             5.1124    -0.7945    -3.7093 C.3     
  10 C10            4.8897     0.6962    -3.4463 C.3     
  11 H11            1.0001     2.1870     0.0043 H       
  12 H12           -0.5497     2.1708    -0.8711 H       
  13 H13           -0.5327     2.1613     0.9088 H       
  14 H14            2.3551     0.8842    -1.0223 H       
  15 H15            2.5679    -0.7812    -0.4314 H       
  16 H16            2.5621    -1.6111    -2.7680 H       
  17 H17            2.3494     0.0544    -3.3590 H       
  18 H18            4.7356    -0.4528    -1.5161 H       
  19 H19            6.1070    -1.1965    -3.5161 H       
  20 H20            4.5783    -1.2431    -4.5469 H       
  21 H21            4.2091     1.2283    -4.1110 H       
  22 H22            5.7378     1.2749    -3.0802 H       
@<TRIPOS>BOND
   1    1    2 1
   2    1   11 1
   3    1   12 1
   4    1   13 1
   5    2    3 2
   6    2    4 2
   7    2    5 1
   8    5    6 1
   9    6    7 1
  10    6   14 1
  11    6   15 1
  12    7    8 1
  13    7   16 1
  14    7   17 1
  15    8    9 1
  16    8   10 1
  17    8   18 1
  18    9   10 1
  19    9   19 1
  20    9   20 1
  21   10   21 1
  22   10   22 1

#	End of record

