#	Name: ASD01815023
#	Creating user name:	WinNT
#	Creation time:	15. 06. 2019 19:33

#	Modifying user name:	WinNT
#	Modification time:	15. 06. 2019 19:33

#	Program:	/corina/corina34_cracker 3.40 0067  02.08.2006

@<TRIPOS>MOLECULE
ASD01815023
  55   58    0    0    0
SMALL
NO_CHARGES


@<TRIPOS>ATOM
   1 C1            -3.6654     1.4691    -5.1300 C.2     
   2 C2            -3.3150     0.3126    -4.4203 C.2     
   3 C3            -2.0926     0.2383    -3.8191 C.2     
   4 C4            -1.2056     1.3227    -3.9217 C.2     
   5 N5            -1.5740     2.4400    -4.6208 N.am    
   6 C6            -2.7981     2.5028    -5.2178 C.2     
   7 C7             0.0512     1.2489    -3.3047 C.2     
   8 C8             0.9203     2.2969    -3.3979 C.2     
   9 C9             0.5382     3.4440    -4.1180 C.2     
  10 C10           -0.7325     3.4881    -4.7270 C.2     
  11 O11           -1.0717     4.4780    -5.3532 O.2     
  12 C12            1.4523     4.5826    -4.2327 C.2     
  13 O13            1.0801     5.6793    -4.9244 O.3     
  14 O14            2.5470     4.5393    -3.7042 O.2     
  15 C15            0.4423     0.0119    -2.5378 C.3     
  16 N16            1.2090    -0.8848    -3.4130 N.3     
  17 C17            1.8080    -1.9840    -2.6453 C.3     
  18 C18            2.7144    -2.8117    -3.5594 C.3     
  19 C19            1.8876    -3.3677    -4.7221 C.3     
  20 C20            1.2355    -2.2054    -5.4760 C.3     
  21 C21            0.3721    -1.3953    -4.5064 C.3     
  22 C22            2.7862    -4.1352    -5.6572 C.ar    
  23 H23            1.1138    -4.0304    -4.3347 H       
  24 H24            2.3966    -1.5749    -1.8242 H       
  25 H25            3.5123    -2.1799    -3.9496 H       
  26 C26            2.6238    -5.5134    -5.8097 C.ar    
  27 C27            3.4605    -6.2169    -6.6787 C.ar    
  28 C28            4.4409    -5.5468    -7.3801 C.ar    
  29 C29            4.5965    -4.1806    -7.2243 C.ar    
  30 C30            3.7676    -3.4767    -6.3690 C.ar    
  31 C31            1.5717    -6.2245    -5.0547 C.2     
  32 O32            1.4092    -5.9918    -3.8736 O.2     
  33 O33            0.7927    -7.1309    -5.6761 O.3     
  34 C34           -0.2205    -7.7909    -4.8721 C.3     
  35 H35           -4.6296     1.5331    -5.6122 H       
  36 H36           -4.0074    -0.5132    -4.3495 H       
  37 H37           -1.8095    -0.6467    -3.2686 H       
  38 H38           -3.0788     3.3893    -5.7671 H       
  39 H39            1.8896     2.2467    -2.9243 H       
  40 H40            1.7171     6.4052    -4.9723 H       
  41 H41            1.0542     0.2939    -1.6810 H       
  42 H42           -0.4556    -0.4994    -2.1906 H       
  43 H43            1.0185    -2.6197    -2.2446 H       
  44 H44            3.1466    -3.6366    -2.9931 H       
  45 H45            2.0102    -1.5640    -5.8964 H       
  46 H46            0.6112    -2.5971    -6.2791 H       
  47 H47           -0.4108    -2.0337    -4.0970 H       
  48 H48           -0.0823    -0.5585    -5.0370 H       
  49 H49            3.3404    -7.2832    -6.8009 H       
  50 H50            5.0890    -6.0897    -8.0522 H       
  51 H51            5.3661    -3.6609    -7.7757 H       
  52 H52            3.8944    -2.4105    -6.2520 H       
  53 H53            0.2584    -8.3284    -4.0536 H       
  54 H54           -0.9047    -7.0457    -4.4664 H       
  55 H55           -0.7757    -8.4941    -5.4929 H       
@<TRIPOS>BOND
   1    1    2 1
   2    1    6 2
   3    1   35 1
   4    2    3 2
   5    2   36 1
   6    3    4 1
   7    3   37 1
   8    4    5 1
   9    4    7 2
  10    5    6 1
  11    5   10 am
  12    6   38 1
  13    7    8 1
  14    7   15 1
  15    8    9 2
  16    8   39 1
  17    9   10 1
  18    9   12 1
  19   10   11 2
  20   12   13 1
  21   12   14 2
  22   13   40 1
  23   15   16 1
  24   15   41 1
  25   15   42 1
  26   16   17 1
  27   16   21 1
  28   17   18 1
  29   17   24 1
  30   17   43 1
  31   18   19 1
  32   18   25 1
  33   18   44 1
  34   19   23 1
  35   19   22 1
  36   19   20 1
  37   20   21 1
  38   20   45 1
  39   20   46 1
  40   21   47 1
  41   21   48 1
  42   22   26 ar
  43   22   30 ar
  44   26   27 ar
  45   26   31 1
  46   27   28 ar
  47   27   49 1
  48   28   29 ar
  49   28   50 1
  50   29   30 ar
  51   29   51 1
  52   30   52 1
  53   31   32 2
  54   31   33 1
  55   33   34 1
  56   34   53 1
  57   34   54 1
  58   34   55 1

#	End of record

