#	Name: ASD03731697
#	Creating user name:	WinNT
#	Creation time:	15. 06. 2019 20:46

#	Modifying user name:	WinNT
#	Modification time:	15. 06. 2019 20:46

#	Program:	/corina/corina34_cracker 3.40 0067  02.08.2006

@<TRIPOS>MOLECULE
ASD03731697
  36   37    0    0    0
SMALL
NO_CHARGES


@<TRIPOS>ATOM
   1 C1            -0.4037     1.1044    -1.9605 C.2     
   2 C2            -0.2822    -0.2736    -1.4502 C.ar    
   3 C3             0.9017    -0.9939    -1.6485 C.ar    
   4 C4             1.0105    -2.2837    -1.1689 C.ar    
   5 C5            -0.0518    -2.8662    -0.4909 C.ar    
   6 C6            -1.2312    -2.1531    -0.2915 C.ar    
   7 C7            -1.3469    -0.8629    -0.7616 C.ar    
   8 O8             0.5253     1.6169    -2.5547 O.2     
   9 N9            -1.5464     1.7940    -1.7732 N.am    
  10 S10           -1.6829     3.3417    -2.3463 S.o2    
  11 O11           -2.9852     3.7488    -1.9492 O.2     
  12 O12           -0.5261     4.0020    -1.8513 O.2     
  13 C13           -1.5931     3.1662    -4.1495 C.3     
  14 O14            0.0593    -4.1350    -0.0213 O.3     
  15 C15            1.2617    -4.7565    -0.1411 C.ar    
  16 C16            2.2135    -4.6281     0.8606 C.ar    
  17 C17            3.4346    -5.2613     0.7366 C.ar    
  18 C18            3.7095    -6.0224    -0.3849 C.ar    
  19 C19            2.7631    -6.1520    -1.3843 C.ar    
  20 C20            1.5378    -5.5254    -1.2625 C.ar    
  21 C21            4.4687    -5.1222     1.8240 C.3     
  22 F22           -2.2618    -2.7252     0.3686 F       
  23 F23            1.9356    -0.4278    -2.3086 F       
  24 H24            1.9232    -2.8406    -1.3216 H       
  25 H25           -2.2603    -0.3092    -0.6021 H       
  26 H26           -2.2889     1.3838    -1.3027 H       
  27 H27           -2.4094     2.5312    -4.4939 H       
  28 H28           -1.6757     4.1484    -4.6148 H       
  29 H29           -0.6401     2.7134    -4.4235 H       
  30 H30            1.9996    -4.0332     1.7363 H       
  31 H31            4.6653    -6.5162    -0.4803 H       
  32 H32            2.9803    -6.7467    -2.2592 H       
  33 H33            0.7971    -5.6306    -2.0414 H       
  34 H34            4.3354    -5.9186     2.5561 H       
  35 H35            5.4655    -5.1921     1.3885 H       
  36 H36            4.3531    -4.1553     2.3138 H       
@<TRIPOS>BOND
   1    1    2 1
   2    1    8 2
   3    1    9 am
   4    2    3 ar
   5    2    7 ar
   6    3    4 ar
   7    3   23 1
   8    4    5 ar
   9    4   24 1
  10    5    6 ar
  11    5   14 1
  12    6    7 ar
  13    6   22 1
  14    7   25 1
  15    9   10 am
  16    9   26 1
  17   10   11 2
  18   10   12 2
  19   10   13 1
  20   13   27 1
  21   13   28 1
  22   13   29 1
  23   14   15 1
  24   15   16 ar
  25   15   20 ar
  26   16   17 ar
  27   16   30 1
  28   17   18 ar
  29   17   21 1
  30   18   19 ar
  31   18   31 1
  32   19   20 ar
  33   19   32 1
  34   20   33 1
  35   21   34 1
  36   21   35 1
  37   21   36 1

#	End of record

