#	Name: ASD01884547
#	Creating user name:	WinNT
#	Creation time:	15. 06. 2019 19:48

#	Modifying user name:	WinNT
#	Modification time:	15. 06. 2019 19:48

#	Program:	/corina/corina34_cracker 3.40 0067  02.08.2006

@<TRIPOS>MOLECULE
ASD01884547
  49   51    0    0    0
SMALL
NO_CHARGES


@<TRIPOS>ATOM
   1 C1            -0.0164     1.3576     0.0095 C.2     
   2 C2             0.0021    -0.0041     0.0020 C.2     
   3 C3             1.2440    -0.6751    -0.0134 C.2     
   4 C4             2.4024     0.0465    -0.0206 C.2     
   5 N5             2.3700     1.4024    -0.0126 N.am    
   6 C6             1.1986     2.0652     0.0017 C.2     
   7 O7             1.1911     3.2857     0.0083 O.2     
   8 C8             3.6266     2.1554    -0.0196 C.3     
   9 C9             4.0447     2.4218    -1.4427 C.ar    
  10 C10            1.2897    -2.1584    -0.0214 C.ar    
  11 C11            0.8124    -2.8774     1.0728 C.ar    
  12 C12            1.8048    -2.8351    -1.1254 C.ar    
  13 C13            1.8460    -4.2138    -1.1298 C.ar    
  14 C14            1.3747    -4.9272    -0.0363 C.ar    
  15 C15            0.8562    -4.2560     1.0626 C.ar    
  16 O16            1.4158    -6.2856    -0.0439 O.3     
  17 C17            0.9144    -6.9563     1.1140 C.3     
  18 C18            4.0047     3.8151    -3.3894 C.ar    
  19 C19            4.8122     2.9107    -4.0533 C.ar    
  20 C20            5.2307     1.7587    -3.4141 C.ar    
  21 C21            4.8472     1.5144    -2.1087 C.ar    
  22 C22            3.6211     3.5708    -2.0840 C.ar    
  23 C23            5.2304     3.1771    -5.4765 C.3     
  24 O24            6.4558     3.9121    -5.4832 O.3     
  25 C25            6.9426     4.2184    -6.7914 C.3     
  26 C26            8.2516     5.0023    -6.6778 C.3     
  27 H27           -0.9563     1.8895     0.0169 H       
  28 H28           -0.9217    -0.5635     0.0082 H       
  29 H29            3.3528    -0.4664    -0.0325 H       
  30 H30            3.4854     3.1026     0.5010 H       
  31 H31            4.4003     1.5759     0.4840 H       
  32 H32            0.4089    -2.3558     1.9281 H       
  33 H33            2.1710    -2.2806    -1.9768 H       
  34 H34            2.2451    -4.7388    -1.9851 H       
  35 H35            0.4906    -4.8137     1.9121 H       
  36 H36            1.4892    -6.6507     1.9883 H       
  37 H37           -0.1340    -6.6958     1.2593 H       
  38 H38            1.0055    -8.0339     0.9777 H       
  39 H39            3.6778     4.7152    -3.8888 H       
  40 H40            5.8616     1.0520    -3.9328 H       
  41 H41            5.1748     0.6147    -1.6090 H       
  42 H42            2.9903     4.2774    -1.5653 H       
  43 H43            5.3720     2.2298    -5.9969 H       
  44 H44            4.4565     3.7562    -5.9802 H       
  45 H45            7.1197     3.2928    -7.3391 H       
  46 H46            6.2042     4.8192    -7.3224 H       
  47 H47            8.9900     4.4016    -6.1468 H       
  48 H48            8.6229     5.2360    -7.6756 H       
  49 H49            8.0745     5.9279    -6.1301 H       
@<TRIPOS>BOND
   1    1    2 2
   2    1    6 1
   3    1   27 1
   4    2    3 1
   5    2   28 1
   6    3    4 2
   7    3   10 1
   8    4    5 1
   9    4   29 1
  10    5    6 am
  11    5    8 1
  12    6    7 2
  13    8    9 1
  14    8   30 1
  15    8   31 1
  16    9   22 ar
  17    9   21 ar
  18   10   11 ar
  19   10   12 ar
  20   11   15 ar
  21   11   32 1
  22   12   13 ar
  23   12   33 1
  24   13   14 ar
  25   13   34 1
  26   14   15 ar
  27   14   16 1
  28   15   35 1
  29   16   17 1
  30   17   36 1
  31   17   37 1
  32   17   38 1
  33   18   19 ar
  34   18   22 ar
  35   18   39 1
  36   19   20 ar
  37   19   23 1
  38   20   21 ar
  39   20   40 1
  40   21   41 1
  41   22   42 1
  42   23   24 1
  43   23   43 1
  44   23   44 1
  45   24   25 1
  46   25   26 1
  47   25   45 1
  48   25   46 1
  49   26   47 1
  50   26   48 1
  51   26   49 1

#	End of record

