#	Name: ASD09080004
#	Creating user name:	WinNT
#	Creation time:	15. 06. 2019 21:20

#	Modifying user name:	WinNT
#	Modification time:	15. 06. 2019 21:20

#	Program:	/corina/corina34_cracker 3.40 0067  02.08.2006

@<TRIPOS>MOLECULE
ASD09080004
  50   51    0    0    0
SMALL
NO_CHARGES


@<TRIPOS>ATOM
   1 O1            -1.0344    -2.2958    -1.0169 O.3     
   2 C2            -3.6855     2.7684    -9.7449 C.ar    
   3 C3            -4.7630     1.9848   -10.1203 C.ar    
   4 C4            -5.0257     0.7982    -9.4579 C.ar    
   5 C5            -4.2123     0.3899    -8.4187 C.ar    
   6 C6            -3.1266     1.1752    -8.0370 C.ar    
   7 C7            -2.8632     2.3662    -8.7104 C.ar    
   8 Cl8           -3.3629     4.2557   -10.5802 Cl      
   9 Cl9           -6.3797    -0.1785    -9.9339 Cl      
  10 C10           -2.2503     0.7417    -6.9207 C.ar    
  11 C11           -1.1644     1.5269    -6.5388 C.ar    
  12 C12           -0.3526     1.1189    -5.4998 C.ar    
  13 C13           -0.6160    -0.0665    -4.8373 C.ar    
  14 C14           -1.6927    -0.8498    -5.2123 C.ar    
  15 C15           -2.5138    -0.4490    -6.2468 C.ar    
  16 C16            0.2736    -0.5064    -3.7033 C.3     
  17 C17           -0.2656     0.0534    -2.3854 C.3     
  18 N18           -0.1765     1.5156    -2.4031 N.am    
  19 C19            0.5632    -0.4940    -1.2217 C.3     
  20 O20            1.9458    -0.2120    -1.4475 O.3     
  21 C21            0.3614    -2.0072    -1.1193 C.3     
  22 C22           -0.9986     2.2502    -1.6279 C.2     
  23 C23           -0.9069     3.7543    -1.6461 C.3     
  24 O24           -1.8121     1.7009    -0.9157 O.2     
  25 O25           -1.8742     4.3014    -0.7477 O.3     
  26 C26           -1.8709     5.7292    -0.6892 C.3     
  27 C27            1.0729    -2.5272     0.1032 C.2     
  28 O28            0.4387    -3.0063     1.0133 O.2     
  29 O29            2.4112    -2.4583     0.1810 O.3     
  30 H30           -1.4628    -1.8980    -0.2466 H       
  31 H31           -5.4010     2.3005   -10.9326 H       
  32 H32           -4.4183    -0.5359    -7.9022 H       
  33 H33           -2.0226     2.9781    -8.4184 H       
  34 H34           -0.9579     2.4526    -7.0553 H       
  35 H35            0.4895     1.7265    -5.2031 H       
  36 H36           -1.8933    -1.7747    -4.6922 H       
  37 H37           -3.3542    -1.0613    -6.5387 H       
  38 H38            0.2901    -1.5953    -3.6558 H       
  39 H39            1.2847    -0.1346    -3.8694 H       
  40 H40           -1.3065    -0.2457    -2.2624 H       
  41 H41            0.4742     1.9550    -2.9727 H       
  42 H42            0.2428    -0.0211    -0.2933 H       
  43 H43            2.2996    -0.6026    -2.2583 H       
  44 H44            0.7678    -2.4890    -2.0086 H       
  45 H45            0.0918     4.0613    -1.3357 H       
  46 H46           -1.1016     4.1180    -2.6551 H       
  47 H47           -2.6326     6.0657     0.0142 H       
  48 H48           -0.8922     6.0771    -0.3589 H       
  49 H49           -2.0856     6.1339    -1.6783 H       
  50 H50            2.8226    -2.8046     0.9847 H       
@<TRIPOS>BOND
   1    1   21 1
   2    1   30 1
   3    2    3 ar
   4    2    8 1
   5    2    7 ar
   6    3    4 ar
   7    3   31 1
   8    4    5 ar
   9    4    9 1
  10    5    6 ar
  11    5   32 1
  12    6    7 ar
  13    6   10 1
  14    7   33 1
  15   10   11 ar
  16   10   15 ar
  17   11   12 ar
  18   11   34 1
  19   12   13 ar
  20   12   35 1
  21   13   14 ar
  22   13   16 1
  23   14   15 ar
  24   14   36 1
  25   15   37 1
  26   16   17 1
  27   16   38 1
  28   16   39 1
  29   17   18 1
  30   17   19 1
  31   17   40 1
  32   18   22 am
  33   18   41 1
  34   19   20 1
  35   19   21 1
  36   19   42 1
  37   20   43 1
  38   21   27 1
  39   21   44 1
  40   22   23 1
  41   22   24 2
  42   23   25 1
  43   23   45 1
  44   23   46 1
  45   25   26 1
  46   26   47 1
  47   26   48 1
  48   26   49 1
  49   27   28 2
  50   27   29 1
  51   29   50 1

#	End of record

