#	Name: ASD01840038
#	Creating user name:	WinNT
#	Creation time:	15. 06. 2019 19:37

#	Modifying user name:	WinNT
#	Modification time:	15. 06. 2019 19:37

#	Program:	/corina/corina34_cracker 3.40 0067  02.08.2006

@<TRIPOS>MOLECULE
ASD01840038
  33   35    0    0    0
SMALL
NO_CHARGES


@<TRIPOS>ATOM
   1 C1             0.9311     1.7996    -1.1871 C.ar    
   2 C2             1.2534     0.6297    -1.8395 C.ar    
   3 N3             2.4614     0.1083    -1.7125 N.ar    
   4 N4             3.3747     0.6478    -0.9949 N.ar    
   5 C5             3.1751     1.7814    -0.3185 C.ar    
   6 C6             1.9253     2.4114    -0.3896 C.ar    
   7 S7             4.2568     2.7013     0.7178 S.3     
   8 C8             3.0360     3.9153     1.0466 C.2     
   9 C9             1.8742     3.6273     0.4005 C.2     
  10 C10           -0.4388     2.4123    -1.3246 C.3     
  11 N11            0.7437     4.4242     0.4880 N.pl3   
  12 C12            3.2329     5.0463     1.8768 C.2     
  13 C13            4.4946     5.1972     2.6343 C.ar    
  14 O14            2.3634     5.8944     1.9669 O.2     
  15 C15            5.1992     4.0680     3.0547 C.ar    
  16 C16            6.3753     4.2157     3.7603 C.ar    
  17 C17            6.8569     5.4798     4.0514 C.ar    
  18 C18            6.1634     6.6033     3.6376 C.ar    
  19 C19            4.9888     6.4696     2.9267 C.ar    
  20 C20            0.2252    -0.0581    -2.7003 C.3     
  21 H21           -1.0658     2.0907    -0.4930 H       
  22 H22           -0.3533     3.4990    -1.3161 H       
  23 H23           -0.8881     2.0906    -2.2641 H       
  24 H24           -0.1244     4.0622     0.2511 H       
  25 H25            0.8207     5.3441     0.7862 H       
  26 H26            4.8241     3.0808     2.8284 H       
  27 H27            6.9212     3.3427     4.0865 H       
  28 H28            7.7781     5.5899     4.6044 H       
  29 H29            6.5447     7.5871     3.8680 H       
  30 H30            4.4507     7.3473     2.6004 H       
  31 H31            0.2961     0.3175    -3.7211 H       
  32 H32            0.4072    -1.1328    -2.6950 H       
  33 H33           -0.7712     0.1436    -2.3073 H       
@<TRIPOS>BOND
   1    1    2 ar
   2    1    6 ar
   3    1   10 1
   4    2    3 ar
   5    2   20 1
   6    3    4 ar
   7    4    5 ar
   8    5    7 1
   9    5    6 ar
  10    6    9 1
  11    7    8 1
  12    8    9 2
  13    8   12 1
  14    9   11 1
  15   10   21 1
  16   10   22 1
  17   10   23 1
  18   11   24 1
  19   11   25 1
  20   12   13 1
  21   12   14 2
  22   13   15 ar
  23   13   19 ar
  24   15   16 ar
  25   15   26 1
  26   16   17 ar
  27   16   27 1
  28   17   18 ar
  29   17   28 1
  30   18   19 ar
  31   18   29 1
  32   19   30 1
  33   20   31 1
  34   20   32 1
  35   20   33 1

#	End of record

