#	Name: ASD01815721
#	Creating user name:	WinNT
#	Creation time:	15. 06. 2019 19:33

#	Modifying user name:	WinNT
#	Modification time:	15. 06. 2019 19:33

#	Program:	/corina/corina34_cracker 3.40 0067  02.08.2006

@<TRIPOS>MOLECULE
ASD01815721
  51   55    0    0    0
SMALL
NO_CHARGES


@<TRIPOS>ATOM
   1 C1            -0.1887     1.1280     0.6585 C.ar    
   2 C2            -0.0776    -0.2585     0.6313 C.ar    
   3 C3             1.1250    -0.8618     0.4130 C.ar    
   4 C4             2.2713    -0.0776     0.2120 C.ar    
   5 C5             2.1544     1.3335     0.2403 C.ar    
   6 C6             0.9053     1.9204     0.4668 C.ar    
   7 C7             3.5292    -0.6738    -0.0166 C.ar    
   8 C8             4.6370     0.0807    -0.2114 C.ar    
   9 C9             4.5758     1.4828    -0.1932 C.ar    
  10 C10            3.3526     2.1408     0.0301 C.ar    
  11 C11            5.7701     2.3109    -0.4041 C.2     
  12 N12            5.6115     3.6544    -0.3696 N.am    
  13 C13            4.3888     4.1978    -0.1469 C.2     
  14 N14            3.3175     3.4838     0.0420 N.2     
  15 O15            6.8614     1.8079    -0.6021 O.2     
  16 C16            6.7693     4.5286    -0.5737 C.3     
  17 C17            6.9719     5.4080     0.6640 C.3     
  18 C18            8.1340     6.3720     0.4108 C.3     
  19 O19            7.8565     7.1555    -0.7516 O.3     
  20 C20            7.7043     6.3900    -1.9487 C.3     
  21 C21            6.5250     5.4268    -1.7902 C.3     
  22 C22            3.6424    -2.1763    -0.0442 C.3     
  23 C23            3.3865    -2.6737    -1.4435 C.2     
  24 C24            2.0733    -2.9171    -1.8732 C.2     
  25 C25            1.8597    -3.3671    -3.1428 C.2     
  26 C26            2.9581    -3.5770    -3.9919 C.2     
  27 N27            4.2072    -3.3351    -3.5511 N.am    
  28 C28            4.4226    -2.8810    -2.2888 C.2     
  29 O29            7.2725     4.5834     1.7917 O.3     
  30 S30            2.7090    -4.1417    -5.5888 S.2     
  31 H31           -1.1534     1.5826     0.8289 H       
  32 H32           -0.9572    -0.8658     0.7859 H       
  33 H33            1.1955    -1.9394     0.3951 H       
  34 H34            0.8072     2.9957     0.4897 H       
  35 H35            5.5857    -0.4059    -0.3837 H       
  36 H36            4.3002     5.2739    -0.1255 H       
  37 H37            7.6601     3.9230    -0.7406 H       
  38 H38            6.0628     5.9768     0.8595 H       
  39 H39            8.2552     7.0292     1.2718 H       
  40 H40            9.0508     5.8032     0.2554 H       
  41 H41            7.5160     7.0603    -2.7873 H       
  42 H42            8.6155     5.8215    -2.1349 H       
  43 H43            6.4347     4.8112    -2.6852 H       
  44 H44            5.6069     5.9959    -1.6443 H       
  45 H45            4.6441    -2.4709     0.2686 H       
  46 H46            2.9077    -2.6085     0.6351 H       
  47 H47            1.2407    -2.7502    -1.2058 H       
  48 H48            0.8560    -3.5604    -3.4914 H       
  49 H49            4.9615    -3.4828    -4.1427 H       
  50 H50            5.4318    -2.6927    -1.9535 H       
  51 H51            7.4134     5.0753     2.6122 H       
@<TRIPOS>BOND
   1    1    2 ar
   2    1    6 ar
   3    1   31 1
   4    2    3 ar
   5    2   32 1
   6    3    4 ar
   7    3   33 1
   8    4    5 ar
   9    4    7 ar
  10    5    6 ar
  11    5   10 ar
  12    6   34 1
  13    7    8 ar
  14    7   22 1
  15    8    9 ar
  16    8   35 1
  17    9   10 ar
  18    9   11 1
  19   10   14 1
  20   11   12 am
  21   11   15 2
  22   12   13 1
  23   12   16 1
  24   13   14 2
  25   13   36 1
  26   16   17 1
  27   16   21 1
  28   16   37 1
  29   17   18 1
  30   17   29 1
  31   17   38 1
  32   18   19 1
  33   18   39 1
  34   18   40 1
  35   19   20 1
  36   20   21 1
  37   20   41 1
  38   20   42 1
  39   21   43 1
  40   21   44 1
  41   22   23 1
  42   22   45 1
  43   22   46 1
  44   23   24 1
  45   23   28 2
  46   24   25 2
  47   24   47 1
  48   25   26 1
  49   25   48 1
  50   26   27 am
  51   26   30 2
  52   27   28 1
  53   27   49 1
  54   28   50 1
  55   29   51 1

#	End of record

