#	Name: ASD01882217
#	Creating user name:	WinNT
#	Creation time:	15. 06. 2019 19:44

#	Modifying user name:	WinNT
#	Modification time:	15. 06. 2019 19:44

#	Program:	/corina/corina34_cracker 3.40 0067  02.08.2006

@<TRIPOS>MOLECULE
ASD01882217
  48   51    0    0    0
SMALL
NO_CHARGES


@<TRIPOS>ATOM
   1 C1            -0.0320     1.5240    -1.2525 C.ar    
   2 C2            -0.1534     0.1813    -0.9468 C.ar    
   3 C3             0.8643    -0.4692    -0.2744 C.ar    
   4 C4             2.0035     0.2229     0.0920 C.ar    
   5 C5             2.1252     1.5653    -0.2145 C.ar    
   6 C6             1.1069     2.2162    -0.8857 C.ar    
   7 C7             3.3668     2.3199     0.1854 C.3     
   8 C8             4.0491     2.8784    -1.0655 C.3     
   9 C9             5.3290     3.6151    -0.6584 C.3     
  10 N10            4.9905     4.6303     0.3484 N.pl3   
  11 C11            4.2531     4.2154     1.5497 C.3     
  12 C12            2.9853     3.4720     1.1178 C.3     
  13 C13            5.3539     5.9319     0.1716 C.2     
  14 C14            6.6364     6.4369     0.6984 C.2     
  15 C15            4.5234     6.8200    -0.5182 C.2     
  16 C16            4.9086     8.1160    -0.6825 C.2     
  17 N17            6.0951     8.5812    -0.1885 N.pl3   
  18 C18            6.9591     7.7638     0.4927 C.2     
  19 N19            7.5587     5.5391     1.4332 N.pl3   
  20 O20            7.2871     4.2542     1.5323 O.2     
  21 O21            8.6498     6.0261     1.9870 O.2     
  22 C22            6.6751     9.8232    -0.2342 C.2     
  23 C23            7.9035     9.7228     0.4426 C.2     
  24 N24            8.0429     8.4922     0.8600 N.2     
  25 C25            6.1059    11.0575    -0.8851 C.3     
  26 C26            6.6662    11.1910    -2.3025 C.3     
  27 F27            6.3128    10.0636    -3.0518 F       
  28 F28            6.1378    12.3369    -2.9068 F       
  29 F29            8.0601    11.2947    -2.2452 F       
  30 H30           -0.8251     2.0311    -1.7818 H       
  31 H31           -1.0434    -0.3594    -1.2331 H       
  32 H32            0.7692    -1.5180    -0.0350 H       
  33 H33            2.7982    -0.2851     0.6180 H       
  34 H34            1.2022     3.2649    -1.1254 H       
  35 H35            4.0506     1.6463     0.7019 H       
  36 H36            4.2995     2.0594    -1.7397 H       
  37 H37            3.3749     3.5714    -1.5689 H       
  38 H38            6.0407     2.9054    -0.2367 H       
  39 H39            5.7660     4.0986    -1.5321 H       
  40 H40            4.8771     3.5546     2.1514 H       
  41 H41            3.9803     5.0949     2.1328 H       
  42 H42            2.3211     4.1593     0.5938 H       
  43 H43            2.4786     3.0754     1.9976 H       
  44 H44            3.5803     6.4797    -0.9196 H       
  45 H45            4.2597     8.7938    -1.2174 H       
  46 H46            8.6123    10.5244     0.5890 H       
  47 H47            5.0198    10.9767    -0.9298 H       
  48 H48            6.3812    11.9359    -0.3014 H       
@<TRIPOS>BOND
   1    1    2 ar
   2    1    6 ar
   3    1   30 1
   4    2    3 ar
   5    2   31 1
   6    3    4 ar
   7    3   32 1
   8    4    5 ar
   9    4   33 1
  10    5    6 ar
  11    5    7 1
  12    6   34 1
  13    7    8 1
  14    7   12 1
  15    7   35 1
  16    8    9 1
  17    8   36 1
  18    8   37 1
  19    9   10 1
  20    9   38 1
  21    9   39 1
  22   10   11 1
  23   10   13 1
  24   11   12 1
  25   11   40 1
  26   11   41 1
  27   12   42 1
  28   12   43 1
  29   13   14 2
  30   13   15 1
  31   14   19 1
  32   14   18 1
  33   15   16 2
  34   15   44 1
  35   16   17 1
  36   16   45 1
  37   17   18 1
  38   17   22 1
  39   18   24 2
  40   19   20 2
  41   19   21 2
  42   22   23 2
  43   22   25 1
  44   23   24 1
  45   23   46 1
  46   25   26 1
  47   25   47 1
  48   25   48 1
  49   26   27 1
  50   26   28 1
  51   26   29 1

#	End of record

