#	Name: ASD09080031
#	Creating user name:	WinNT
#	Creation time:	15. 06. 2019 21:20

#	Modifying user name:	WinNT
#	Modification time:	15. 06. 2019 21:20

#	Program:	/corina/corina34_cracker 3.40 0067  02.08.2006

@<TRIPOS>MOLECULE
ASD09080031
  49   50    0    0    0
SMALL
NO_CHARGES


@<TRIPOS>ATOM
   1 C1            -0.0167     1.3772     0.0096 C.ar    
   2 C2             0.0021    -0.0041     0.0020 C.ar    
   3 C3             1.2087    -0.6820    -0.0127 C.ar    
   4 C4             2.4019     0.0195    -0.0203 C.ar    
   5 C5             2.3936     1.4009    -0.0128 C.ar    
   6 C6             1.1817     2.0879     0.0020 C.ar    
   7 Cl7           -1.4902    -0.8910     0.0115 Cl      
   8 Cl8            3.9112    -0.8380    -0.0387 Cl      
   9 C9             1.1672     3.5718     0.0096 C.ar    
  10 C10           -0.0448     4.2591     0.0244 C.ar    
  11 C11            2.3655     4.2827     0.0078 C.ar    
  12 C12           -0.0524     5.6392     0.0319 C.ar    
  13 C13            1.1401     6.3400     0.0248 C.ar    
  14 C14            2.3461     5.6628     0.0154 C.ar    
  15 C15            1.1254     7.8469     0.0325 C.3     
  16 C16            1.1333     8.3496     1.4776 C.3     
  17 N17            2.3947     7.9710     2.1194 N.am    
  18 C18            0.9927     9.8731     1.4884 C.3     
  19 C19            2.4557     7.8379     3.4592 C.2     
  20 C20            3.7532     7.4485     4.1194 C.3     
  21 O21            1.4664     8.0315     4.1335 O.2     
  22 O22            3.5640     7.3727     5.5338 O.3     
  23 C23            4.7404     7.0086     6.2588 C.3     
  24 C24           -0.3246    10.2685     0.8181 C.3     
  25 O25            1.0001    10.3426     2.8380 O.3     
  26 C26           -0.4067    11.7699     0.7184 C.2     
  27 O27            0.4959    12.4536     1.1401 O.2     
  28 O28           -1.4824    12.3477     0.1610 O.3     
  29 H29           -0.9587     1.9054     0.0170 H       
  30 H30            1.2193    -1.7620    -0.0179 H       
  31 H31            3.3252     1.9474    -0.0180 H       
  32 H32           -0.9765     3.7129     0.0296 H       
  33 H33            3.3077     3.7549     0.0009 H       
  34 H34           -0.9912     6.1730     0.0430 H       
  35 H35            3.2743     6.2149     0.0099 H       
  36 H36            2.0071     8.2216    -0.4873 H       
  37 H37            0.2273     8.2041    -0.4715 H       
  38 H38            0.3007     7.9040     2.0218 H       
  39 H39            3.1859     7.8162     1.5801 H       
  40 H40            1.8254    10.3187     0.9441 H       
  41 H41            4.0751     6.4774     3.7433 H       
  42 H42            4.5141     8.1957     3.8941 H       
  43 H43            4.5139     6.9730     7.3244 H       
  44 H44            5.0827     6.0283     5.9271 H       
  45 H45            5.5217     7.7467     6.0779 H       
  46 H46           -0.3683     9.8350    -0.1811 H       
  47 H47           -1.1600     9.8976     1.4119 H       
  48 H48            1.8073    10.1271     3.3250 H       
  49 H49           -1.4897    13.3138     0.1194 H       
@<TRIPOS>BOND
   1    1    2 ar
   2    1    6 ar
   3    1   29 1
   4    2    3 ar
   5    2    7 1
   6    3    4 ar
   7    3   30 1
   8    4    5 ar
   9    4    8 1
  10    5    6 ar
  11    5   31 1
  12    6    9 1
  13    9   10 ar
  14    9   11 ar
  15   10   12 ar
  16   10   32 1
  17   11   14 ar
  18   11   33 1
  19   12   13 ar
  20   12   34 1
  21   13   14 ar
  22   13   15 1
  23   14   35 1
  24   15   16 1
  25   15   36 1
  26   15   37 1
  27   16   17 1
  28   16   18 1
  29   16   38 1
  30   17   19 am
  31   17   39 1
  32   18   24 1
  33   18   25 1
  34   18   40 1
  35   19   20 1
  36   19   21 2
  37   20   22 1
  38   20   41 1
  39   20   42 1
  40   22   23 1
  41   23   43 1
  42   23   44 1
  43   23   45 1
  44   24   26 1
  45   24   46 1
  46   24   47 1
  47   25   48 1
  48   26   27 2
  49   26   28 1
  50   28   49 1

#	End of record

