#	Name: ASD00431163
#	Creating user name:	WinNT
#	Creation time:	15. 06. 2019 18:35

#	Modifying user name:	WinNT
#	Modification time:	15. 06. 2019 18:35

#	Program:	/corina/corina34_cracker 3.40 0067  02.08.2006

@<TRIPOS>MOLECULE
ASD00431163
  52   55    0    0    0
SMALL
NO_CHARGES


@<TRIPOS>ATOM
   1 C1             0.2829     1.9277    -0.0151 C.2     
   2 C2             0.3000     0.4255    -0.1348 C.3     
   3 O3             1.3252     2.5403     0.0807 O.2     
   4 N4            -0.8905     2.5908    -0.0201 N.am    
   5 C5            -0.9071     4.0511     0.0963 C.3     
   6 C6            -0.7164     4.6751    -1.2876 C.3     
   7 O7            -3.4366     3.9912     0.3765 O.3     
   8 N8            -4.3174     4.5458     0.9917 N.2     
   9 C9            -3.8364     5.4850     1.7729 C.2     
  10 C10           -2.4246     5.4752     1.5776 C.2     
  11 C11           -2.2285     4.4943     0.6694 C.2     
  12 S12           -3.9311     7.6266     3.7099 S.3     
  13 C13           -5.4981     8.0173     4.2703 C.2     
  14 N14           -6.3821     7.2553     3.7033 N.2     
  15 C15           -5.9413     6.3637     2.8431 C.2     
  16 C16           -4.6028     6.3717     2.6716 C.2     
  17 O17           -5.7771     8.9842     5.1766 O.3     
  18 C18           -7.0832     9.2464     5.4485 C.ar    
  19 C19           -7.8621     8.2960     6.0924 C.ar    
  20 C20           -9.1888     8.5625     6.3686 C.ar    
  21 C21           -9.7425     9.7804     6.0022 C.ar    
  22 C22           -8.9638    10.7307     5.3583 C.ar    
  23 C23           -7.6355    10.4666     5.0872 C.ar    
  24 O24          -11.0488    10.0425     6.2737 O.3     
  25 C25          -11.5325    11.3447     5.9387 C.3     
  26 C26          -13.0618    11.3121     5.7715 C.3     
  27 C27          -13.6410    12.2792     6.8247 C.3     
  28 C28          -12.4770    13.2562     7.1240 C.3     
  29 C29          -11.2357    12.3304     7.0876 C.3     
  30 H30            1.3307     0.0714    -0.1171 H       
  31 H31           -0.2489    -0.0117     0.6993 H       
  32 H32           -0.1695     0.1305    -1.0732 H       
  33 H33           -1.7239     2.1011    -0.1007 H       
  34 H34           -0.0996     4.3723     0.7542 H       
  35 H35           -1.5239     4.3538    -1.9455 H       
  36 H36           -0.7288     5.7616    -1.2010 H       
  37 H37            0.2393     4.3545    -1.7021 H       
  38 H38           -1.6837     6.1056     2.0467 H       
  39 H39           -6.5951     5.6828     2.3183 H       
  40 H40           -7.4311     7.3476     6.3775 H       
  41 H41           -9.7953     7.8225     6.8696 H       
  42 H42           -9.3951    11.6788     5.0727 H       
  43 H43           -7.0281    11.2083     4.5899 H       
  44 H44          -11.0635    11.6914     5.0178 H       
  45 H45          -13.3351    11.6438     4.7698 H       
  46 H46          -13.4350    10.3030     5.9459 H       
  47 H47          -14.4965    12.8183     6.4179 H       
  48 H48          -13.9246    11.7361     7.7262 H       
  49 H49          -12.4091    14.0238     6.3532 H       
  50 H50          -12.5943    13.7064     8.1097 H       
  51 H51          -11.1309    11.7956     8.0316 H       
  52 H52          -10.3360    12.9070     6.8727 H       
@<TRIPOS>BOND
   1    1    2 1
   2    1    3 2
   3    1    4 am
   4    2   30 1
   5    2   31 1
   6    2   32 1
   7    4    5 1
   8    4   33 1
   9    5    6 1
  10    5   11 1
  11    5   34 1
  12    6   35 1
  13    6   36 1
  14    6   37 1
  15    7    8 1
  16    7   11 1
  17    8    9 2
  18    9   10 1
  19    9   16 1
  20   10   11 2
  21   10   38 1
  22   12   13 1
  23   12   16 1
  24   13   14 2
  25   13   17 1
  26   14   15 1
  27   15   16 2
  28   15   39 1
  29   17   18 1
  30   18   19 ar
  31   18   23 ar
  32   19   20 ar
  33   19   40 1
  34   20   21 ar
  35   20   41 1
  36   21   22 ar
  37   21   24 1
  38   22   23 ar
  39   22   42 1
  40   23   43 1
  41   24   25 1
  42   25   26 1
  43   25   29 1
  44   25   44 1
  45   26   27 1
  46   26   45 1
  47   26   46 1
  48   27   28 1
  49   27   47 1
  50   27   48 1
  51   28   29 1
  52   28   49 1
  53   28   50 1
  54   29   51 1
  55   29   52 1

#	End of record

