#	Name: ASD01840100
#	Creating user name:	WinNT
#	Creation time:	15. 06. 2019 19:37

#	Modifying user name:	WinNT
#	Modification time:	15. 06. 2019 19:37

#	Program:	/corina/corina34_cracker 3.40 0067  02.08.2006

@<TRIPOS>MOLECULE
ASD01840100
  44   47    0    0    0
SMALL
NO_CHARGES


@<TRIPOS>ATOM
   1 C1             0.0770     1.4945     0.1199 C.ar    
   2 N2             0.2697     0.4763     0.9447 N.ar    
   3 C3             1.4190    -0.1747     0.9711 C.ar    
   4 N4             2.4233     0.1477     0.1898 N.ar    
   5 C5             1.1305     1.8848    -0.7467 C.ar    
   6 C6             1.1927     2.9459    -1.7341 C.2     
   7 C7             2.3247     1.1628    -0.6782 C.ar    
   8 S8             3.4776     1.8185    -1.8314 S.3     
   9 C9             2.3409     3.0373    -2.3767 C.2     
  10 C10            0.0349     3.8718    -2.0049 C.3     
  11 C11            2.6378     4.0586    -3.4443 C.3     
  12 N12           -1.1337     2.1630     0.0996 N.3     
  13 C13           -2.2270     1.2602    -0.2826 C.3     
  14 C14           -3.5219     2.0613    -0.4361 C.3     
  15 C15           -3.8475     2.7547     0.8897 C.3     
  16 C16           -2.6727     3.6518     1.2894 C.3     
  17 C17           -1.4024     2.8046     1.3929 C.3     
  18 O18           -5.0248     3.5499     0.7362 O.3     
  19 C19           -5.7528     3.7977     1.8574 C.ar    
  20 C20           -6.0655     3.6616     4.2177 C.ar    
  21 C21           -5.2901     3.3868     3.1036 C.ar    
  22 C22           -6.9635     4.4681     1.7750 C.ar    
  23 N23           -7.6737     4.7121     2.8592 N.ar    
  24 C24           -7.2667     4.3320     4.0563 C.ar    
  25 F25           -8.0295     4.6038     5.1377 F       
  26 H26            1.5362    -0.9994     1.6586 H       
  27 H27            0.0668     4.7075    -1.3058 H       
  28 H28            0.1023     4.2490    -3.0254 H       
  29 H29           -0.9017     3.3286    -1.8795 H       
  30 H30            3.0591     4.9527    -2.9848 H       
  31 H31            3.3528     3.6440    -4.1549 H       
  32 H32            1.7162     4.3178    -3.9655 H       
  33 H33           -1.9847     0.7767    -1.2290 H       
  34 H34           -2.3584     0.5019     0.4893 H       
  35 H35           -3.3957     2.8107    -1.2174 H       
  36 H36           -4.3364     1.3885    -0.7045 H       
  37 H37           -4.0120     2.0040     1.6627 H       
  38 H38           -2.5332     4.4263     0.5353 H       
  39 H39           -2.8805     4.1153     2.2538 H       
  40 H40           -1.5377     2.0390     2.1569 H       
  41 H41           -0.5612     3.4428     1.6634 H       
  42 H42           -5.7371     3.3574     5.2006 H       
  43 H43           -4.3489     2.8658     3.1997 H       
  44 H44           -7.3288     4.7945     0.8125 H       
@<TRIPOS>BOND
   1    1    2 ar
   2    1    5 ar
   3    1   12 1
   4    2    3 ar
   5    3    4 ar
   6    3   26 1
   7    4    7 ar
   8    5    7 ar
   9    5    6 1
  10    6    9 2
  11    6   10 1
  12    7    8 1
  13    8    9 1
  14    9   11 1
  15   10   27 1
  16   10   28 1
  17   10   29 1
  18   11   30 1
  19   11   31 1
  20   11   32 1
  21   12   13 1
  22   12   17 1
  23   13   14 1
  24   13   33 1
  25   13   34 1
  26   14   15 1
  27   14   35 1
  28   14   36 1
  29   15   16 1
  30   15   18 1
  31   15   37 1
  32   16   17 1
  33   16   38 1
  34   16   39 1
  35   17   40 1
  36   17   41 1
  37   18   19 1
  38   19   22 ar
  39   19   21 ar
  40   20   21 ar
  41   20   24 ar
  42   20   42 1
  43   21   43 1
  44   22   23 ar
  45   22   44 1
  46   23   24 ar
  47   24   25 1

#	End of record

