#	Name: ASD01916668
#	Creating user name:	WinNT
#	Creation time:	15. 06. 2019 20:07

#	Modifying user name:	WinNT
#	Modification time:	15. 06. 2019 20:07

#	Program:	/corina/corina34_cracker 3.40 0067  02.08.2006

@<TRIPOS>MOLECULE
ASD01916668
  47   50    0    0    0
SMALL
NO_CHARGES


@<TRIPOS>ATOM
   1 C1            -0.0171     1.4099     0.0098 C.ar    
   2 C2             0.0021    -0.0041     0.0020 C.ar    
   3 C3            -1.1911    -0.7256     0.0414 C.ar    
   4 C4            -2.3839    -0.0644     0.0741 C.ar    
   5 C5            -2.4217     1.3383     0.0659 C.ar    
   6 C6            -1.2407     2.0764     0.0357 C.ar    
   7 N7             1.1598     2.0753     0.0021 N.2     
   8 C8             2.3198     1.4679    -0.0397 C.2     
   9 N9             2.4202     0.1198    -0.1575 N.am    
  10 C10            1.3106    -0.6628    -0.0625 C.2     
  11 C11           -3.7191     2.0350     0.0898 C.2     
  12 O12            1.4020    -1.8764    -0.0317 O.2     
  13 C13           -4.8620     1.3271     0.1194 C.2     
  14 C14           -6.1581     2.0232     0.1432 C.ar    
  15 N15           -6.1899     3.3537     0.1353 N.ar    
  16 C16           -7.3255     4.0158     0.1554 C.ar    
  17 C17           -8.5458     3.3345     0.1861 C.ar    
  18 C18           -8.5450     1.9316     0.1952 C.ar    
  19 C19           -7.3420     1.2782     0.1682 C.ar    
  20 C20            3.5356     2.3454     0.1020 C.3     
  21 C21            4.7921     1.6930    -0.4308 C.3     
  22 C22            4.8966     0.2366    -0.0270 C.3     
  23 C23            3.6798    -0.5615    -0.4368 C.3     
  24 C24            6.1350    -0.3733    -0.6869 C.3     
  25 C25            5.0557     0.1534     1.4924 C.3     
  26 C26           -9.7807     4.0592     0.2084 C.1     
  27 N27          -10.7603     4.6341     0.2261 N.1     
  28 H28           -1.1706    -1.8054     0.0456 H       
  29 H29           -3.3064    -0.6250     0.1063 H       
  30 H30           -1.2731     3.1559     0.0313 H       
  31 H31           -3.7526     3.1145     0.0835 H       
  32 H32           -4.8285     0.2477     0.1256 H       
  33 H33           -7.3155     5.0957     0.1486 H       
  34 H34           -9.4728     1.3793     0.2191 H       
  35 H35           -7.3072     0.1988     0.1743 H       
  36 H36            3.3641     3.2747    -0.4412 H       
  37 H37            3.6803     2.5785     1.1569 H       
  38 H38            4.7909     1.7592    -1.5188 H       
  39 H39            5.6595     2.2297    -0.0465 H       
  40 H40            3.6890    -1.5119     0.0970 H       
  41 H41            3.7382    -0.7637    -1.5063 H       
  42 H42            7.0241     0.1648    -0.3582 H       
  43 H43            6.2190    -1.4221    -0.4022 H       
  44 H44            6.0441    -0.2971    -1.7704 H       
  45 H45            4.1898     0.6078     1.9738 H       
  46 H46            5.1318    -0.8915     1.7931 H       
  47 H47            5.9589     0.6846     1.7928 H       
@<TRIPOS>BOND
   1    1    2 ar
   2    1    7 1
   3    1    6 ar
   4    2    3 ar
   5    2   10 1
   6    3    4 ar
   7    3   28 1
   8    4    5 ar
   9    4   29 1
  10    5    6 ar
  11    5   11 1
  12    6   30 1
  13    7    8 2
  14    8    9 1
  15    8   20 1
  16    9   10 am
  17    9   23 1
  18   10   12 2
  19   11   13 2
  20   11   31 1
  21   13   14 1
  22   13   32 1
  23   14   15 ar
  24   14   19 ar
  25   15   16 ar
  26   16   17 ar
  27   16   33 1
  28   17   26 1
  29   17   18 ar
  30   18   19 ar
  31   18   34 1
  32   19   35 1
  33   20   21 1
  34   20   36 1
  35   20   37 1
  36   21   22 1
  37   21   38 1
  38   21   39 1
  39   22   23 1
  40   22   24 1
  41   22   25 1
  42   23   40 1
  43   23   41 1
  44   24   42 1
  45   24   43 1
  46   24   44 1
  47   25   45 1
  48   25   46 1
  49   25   47 1
  50   26   27 3

#	End of record

