#	Name: ASD01912018
#	Creating user name:	WinNT
#	Creation time:	15. 06. 2019 19:58

#	Modifying user name:	WinNT
#	Modification time:	15. 06. 2019 19:58

#	Program:	/corina/corina34_cracker 3.40 0067  02.08.2006

@<TRIPOS>MOLECULE
ASD01912018
  41   44    0    0    0
SMALL
NO_CHARGES


@<TRIPOS>ATOM
   1 C1            -0.0167     1.3792     0.0096 C.ar    
   2 C2             0.0021    -0.0041     0.0020 C.ar    
   3 C3             1.2062    -0.6851    -0.0131 C.ar    
   4 C4             2.3966     0.0125    -0.0203 C.ar    
   5 C5             2.3843     1.4072    -0.0126 C.ar    
   6 C6             1.1671     2.0881     0.0021 C.ar    
   7 C7             3.6585     2.1621    -0.0198 C.ar    
   8 N8             4.7242     1.6973     0.6246 N.ar    
   9 C9             5.8647     2.3693     0.6205 C.ar    
  10 N10            5.9997     3.5246    -0.0176 N.ar    
  11 C11            4.9925     4.0589    -0.6830 C.ar    
  12 C12            3.7653     3.3856    -0.7159 C.ar    
  13 C13            2.6464     3.9289    -1.4255 C.1     
  14 N14            1.7588     4.3599    -1.9884 N.1     
  15 N15            6.9507     1.8504     1.3040 N.pl3   
  16 C16            8.1498     2.5329     1.3139 C.2     
  17 O17            9.2648     2.1221     1.9433 O.3     
  18 C18           10.2326     3.0432     1.7317 C.ar    
  19 C19            9.6572     4.0465     0.9375 C.ar    
  20 N20            8.3693     3.6710     0.7078 N.2     
  21 C21           11.5566     3.1507     2.1254 C.ar    
  22 C22           12.3039     4.2435     1.7352 C.ar    
  23 C23           11.7392     5.2372     0.9503 C.ar    
  24 C24           10.4241     5.1464     0.5503 C.ar    
  25 C25           -1.2944    -0.7722     0.0107 C.3     
  26 C26           -1.7475    -1.0244    -1.4287 C.3     
  27 H27           -0.9598     1.9054     0.0169 H       
  28 H28            1.2144    -1.7651    -0.0190 H       
  29 H29            3.3360    -0.5203    -0.0314 H       
  30 H30            1.1512     3.1680     0.0077 H       
  31 H31            5.1146     5.0001    -1.1983 H       
  32 H32            6.8687     1.0070     1.7760 H       
  33 H33           12.0032     2.3808     2.7371 H       
  34 H34           13.3357     4.3253     2.0436 H       
  35 H35           12.3338     6.0877     0.6511 H       
  36 H36            9.9885     5.9228    -0.0612 H       
  37 H37           -1.1484    -1.7258     0.5180 H       
  38 H38           -2.0555    -0.1944     0.5353 H       
  39 H39           -1.8936    -0.0708    -1.9360 H       
  40 H40           -0.9865    -1.6021    -1.9532 H       
  41 H41           -2.6853    -1.5800    -1.4224 H       
@<TRIPOS>BOND
   1    1    2 ar
   2    1    6 ar
   3    1   27 1
   4    2    3 ar
   5    2   25 1
   6    3    4 ar
   7    3   28 1
   8    4    5 ar
   9    4   29 1
  10    5    6 ar
  11    5    7 1
  12    6   30 1
  13    7    8 ar
  14    7   12 ar
  15    8    9 ar
  16    9   10 ar
  17    9   15 1
  18   10   11 ar
  19   11   12 ar
  20   11   31 1
  21   12   13 1
  22   13   14 3
  23   15   16 1
  24   15   32 1
  25   16   17 1
  26   16   20 2
  27   17   18 1
  28   18   19 ar
  29   18   21 ar
  30   19   20 1
  31   19   24 ar
  32   21   22 ar
  33   21   33 1
  34   22   23 ar
  35   22   34 1
  36   23   24 ar
  37   23   35 1
  38   24   36 1
  39   25   26 1
  40   25   37 1
  41   25   38 1
  42   26   39 1
  43   26   40 1
  44   26   41 1

#	End of record

