#	Name: ASD01883561
#	Creating user name:	WinNT
#	Creation time:	15. 06. 2019 19:46

#	Modifying user name:	WinNT
#	Modification time:	15. 06. 2019 19:46

#	Program:	/corina/corina34_cracker 3.40 0067  02.08.2006

@<TRIPOS>MOLECULE
ASD01883561
  53   55    0    0    0
SMALL
NO_CHARGES


@<TRIPOS>ATOM
   1 C1            -0.0162     1.3453     0.0094 C.2     
   2 C2             0.0021    -0.0041     0.0020 C.2     
   3 N3             1.1772    -0.6879    -0.0124 N.am    
   4 C4             2.3585    -0.0433    -0.0198 C.2     
   5 C5             2.3962     1.3583    -0.0126 C.2     
   6 C6             1.2013     2.0642     0.0017 C.2     
   7 C7             1.1570    -2.1527    -0.0196 C.3     
   8 O8             3.4001    -0.6806    -0.0323 O.2     
   9 Cl9            3.9153     2.1985    -0.0214 Cl      
  10 C10            1.2014     3.5445     0.0091 C.ar    
  11 C11            0.6811     4.2491    -1.0777 C.ar    
  12 C12            0.6820     5.6265    -1.0681 C.ar    
  13 C13            1.2013     6.3153     0.0233 C.ar    
  14 C14            1.7209     5.6154     1.1075 C.ar    
  15 C15            1.7166     4.2380     1.1055 C.ar    
  16 N16            1.2015     7.7087     0.0303 N.pl3   
  17 C17            1.7480     8.4354     1.1790 C.3     
  18 C18            1.1364    -2.6554    -1.4645 C.3     
  19 C19            1.1153    -4.1852    -1.4721 C.3     
  20 C20           -0.1932    -4.6803    -0.8527 C.3     
  21 C21            1.2206    -4.6897    -2.9127 C.3     
  22 C22            2.2081     9.8268     0.7334 C.3     
  23 C23            2.7045    10.6067     1.9537 C.3     
  24 O24            1.6593    10.6843     2.9251 O.3     
  25 C25            1.2211     9.4148     3.4134 C.3     
  26 C26            0.6652     8.5870     2.2518 C.3     
  27 H27           -0.9578     1.8743     0.0168 H       
  28 H28           -0.9304    -0.5488     0.0080 H       
  29 H29            2.0466    -2.5309     0.4840 H       
  30 H30            0.2669    -2.5064     0.5008 H       
  31 H31            0.2785     3.7148    -1.9255 H       
  32 H32            0.2796     6.1722    -1.9087 H       
  33 H33            2.1238     6.1525     1.9534 H       
  34 H34            2.1201     3.6950     1.9474 H       
  35 H35            0.8397     8.1976    -0.7254 H       
  36 H36            2.5950     7.8852     1.5891 H       
  37 H37            0.2468    -2.2773    -1.9682 H       
  38 H38            2.0265    -2.3018    -1.9850 H       
  39 H39            1.9575    -4.5631    -0.8924 H       
  40 H40           -0.2082    -5.7702    -0.8580 H       
  41 H41           -0.2681    -4.3209     0.1737 H       
  42 H42           -1.0354    -4.3024    -1.4323 H       
  43 H43            2.1527    -4.3370    -3.3540 H       
  44 H44            1.2055    -5.7796    -2.9180 H       
  45 H45            0.3784    -4.3118    -3.4924 H       
  46 H46            3.0176     9.7285     0.0100 H       
  47 H47            1.3729    10.3578     0.2768 H       
  48 H48            3.5652    10.0964     2.3858 H       
  49 H49            2.9932    11.6127     1.6493 H       
  50 H50            2.0625     8.8888     3.8647 H       
  51 H51            0.4414     9.5622     4.1607 H       
  52 H52           -0.2012     9.0929     1.8259 H       
  53 H53            0.3712     7.6020     2.6144 H       
@<TRIPOS>BOND
   1    1    2 2
   2    1    6 1
   3    1   27 1
   4    2    3 1
   5    2   28 1
   6    3    4 am
   7    3    7 1
   8    4    5 1
   9    4    8 2
  10    5    6 2
  11    5    9 1
  12    6   10 1
  13    7   18 1
  14    7   29 1
  15    7   30 1
  16   10   11 ar
  17   10   15 ar
  18   11   12 ar
  19   11   31 1
  20   12   13 ar
  21   12   32 1
  22   13   14 ar
  23   13   16 1
  24   14   15 ar
  25   14   33 1
  26   15   34 1
  27   16   17 1
  28   16   35 1
  29   17   22 1
  30   17   26 1
  31   17   36 1
  32   18   19 1
  33   18   37 1
  34   18   38 1
  35   19   20 1
  36   19   21 1
  37   19   39 1
  38   20   40 1
  39   20   41 1
  40   20   42 1
  41   21   43 1
  42   21   44 1
  43   21   45 1
  44   22   23 1
  45   22   46 1
  46   22   47 1
  47   23   24 1
  48   23   48 1
  49   23   49 1
  50   24   25 1
  51   25   26 1
  52   25   50 1
  53   25   51 1
  54   26   52 1
  55   26   53 1

#	End of record

