#	Name: ASD05250012
#	Creating user name:	WinNT
#	Creation time:	15. 06. 2019 20:58

#	Modifying user name:	WinNT
#	Modification time:	15. 06. 2019 20:58

#	Program:	/corina/corina34_cracker 3.40 0067  02.08.2006

@<TRIPOS>MOLECULE
ASD05250012
  43   46    0    0    0
SMALL
NO_CHARGES


@<TRIPOS>ATOM
   1 O1             0.0031    -0.0034    -0.0049 O.2     
   2 C2            -0.0141     1.2122     0.0005 C.2     
   3 N3             1.1433     1.9026    -0.0163 N.am    
   4 C4             2.4785     1.3001    -0.0417 C.3     
   5 C5             3.4563     2.4869    -0.0534 C.3     
   6 C6             2.5668     3.7084    -0.0330 C.ar    
   7 C7             1.2427     3.2930    -0.0182 C.ar    
   8 N8             0.2693     4.2020     0.0012 N.ar    
   9 C9             0.5226     5.5014     0.0068 C.ar    
  10 C10            1.8320     5.9740    -0.0079 C.ar    
  11 C11            2.8720     5.0584    -0.0329 C.ar    
  12 C12           -0.6037     6.4666     0.0287 C.ar    
  13 C13           -0.3548     7.8340    -0.0702 C.ar    
  14 C14           -1.4067     8.7276    -0.0493 C.ar    
  15 C15           -2.7057     8.2679     0.0699 C.ar    
  16 C16           -2.9586     6.9113     0.1684 C.ar    
  17 C17           -1.9152     6.0086     0.1424 C.ar    
  18 C18           -4.3767     6.4182     0.2981 C.3     
  19 F19           -5.2521     7.5095     0.2952 F       
  20 F20           -4.6778     5.5760    -0.7777 F       
  21 F21           -4.5168     5.7112     1.4972 F       
  22 N22           -1.1906     1.8695     0.0179 N.am    
  23 C23           -2.3876     1.1601    -0.0856 C.ar    
  24 C24           -3.5293     1.5809     0.5946 C.ar    
  25 C25           -4.6933     0.8520     0.4656 C.ar    
  26 N26           -4.7339    -0.2298    -0.2892 N.ar    
  27 C27           -3.6749    -0.6602    -0.9486 C.ar    
  28 C28           -2.4744     0.0154    -0.8766 C.ar    
  29 H29            2.6350     0.6900     0.8479 H       
  30 H30            2.6044     0.6976    -0.9413 H       
  31 H31            4.0926     2.4645     0.8313 H       
  32 H32            4.0620     2.4721    -0.9595 H       
  33 H33            2.0337     7.0350    -0.0035 H       
  34 H34            3.8994     5.3912    -0.0445 H       
  35 H35            0.6592     8.1941    -0.1627 H       
  36 H36           -1.2150     9.7877    -0.1259 H       
  37 H37           -3.5256     8.9706     0.0865 H       
  38 H38           -2.1138     4.9499     0.2194 H       
  39 H39           -1.2052     2.8357     0.1023 H       
  40 H40           -3.5028     2.4651     1.2142 H       
  41 H41           -5.5826     1.1704     0.9892 H       
  42 H42           -3.7501    -1.5504    -1.5554 H       
  43 H43           -1.6115    -0.3422    -1.4187 H       
@<TRIPOS>BOND
   1    1    2 2
   2    2    3 am
   3    2   22 am
   4    3    4 1
   5    3    7 1
   6    4    5 1
   7    4   29 1
   8    4   30 1
   9    5    6 1
  10    5   31 1
  11    5   32 1
  12    6    7 ar
  13    6   11 ar
  14    7    8 ar
  15    8    9 ar
  16    9   10 ar
  17    9   12 1
  18   10   11 ar
  19   10   33 1
  20   11   34 1
  21   12   13 ar
  22   12   17 ar
  23   13   14 ar
  24   13   35 1
  25   14   15 ar
  26   14   36 1
  27   15   16 ar
  28   15   37 1
  29   16   17 ar
  30   16   18 1
  31   17   38 1
  32   18   19 1
  33   18   20 1
  34   18   21 1
  35   22   23 1
  36   22   39 1
  37   23   24 ar
  38   23   28 ar
  39   24   25 ar
  40   24   40 1
  41   25   26 ar
  42   25   41 1
  43   26   27 ar
  44   27   28 ar
  45   27   42 1
  46   28   43 1

#	End of record

