#	Name: ASD01912490
#	Creating user name:	WinNT
#	Creation time:	15. 06. 2019 19:59

#	Modifying user name:	WinNT
#	Modification time:	15. 06. 2019 19:59

#	Program:	/corina/corina34_cracker 3.40 0067  02.08.2006

@<TRIPOS>MOLECULE
ASD01912490
  46   49    0    0    0
SMALL
NO_CHARGES


@<TRIPOS>ATOM
   1 C1            -0.0474     1.4682    -0.0237 C.2     
   2 O2            -0.0647     0.1333    -0.0900 O.3     
   3 N3            -1.2095    -0.2675    -0.0952 N.2     
   4 C4            -2.0391     0.7414    -0.0341 C.2     
   5 N5            -1.2938     1.8685     0.0177 N.2     
   6 C6            -3.5212     0.6637    -0.0187 C.ar    
   7 C7            -4.1566    -0.5747    -0.0717 C.ar    
   8 C8            -5.5366    -0.6411    -0.0571 C.ar    
   9 C9            -6.2866     0.5203     0.0099 C.ar    
  10 C10           -5.6596     1.7521     0.0627 C.ar    
  11 C11           -4.2817     1.8291     0.0545 C.ar    
  12 Cl12          -6.3309    -2.1832    -0.1236 Cl      
  13 C13            1.1764     2.3472     0.0047 C.3     
  14 C14            2.1064     2.0763     1.2012 C.3     
  15 N15            3.2175     2.2075     0.2387 N.am    
  16 C16            2.3283     1.8346    -0.8786 C.3     
  17 C17            4.5207     2.5360     0.3396 C.2     
  18 N18            5.3246     2.4423    -0.7381 N.am    
  19 O19            4.9711     2.9169     1.4028 O.2     
  20 C20            4.8361     1.8408    -1.9864 C.3     
  21 C21            5.8024     0.7300    -2.4097 C.3     
  22 C22            7.2202     1.2993    -2.4990 C.3     
  23 C23            7.6514     1.8169    -1.1249 C.3     
  24 C24            6.7043     2.9451    -0.6888 C.3     
  25 C25            8.1827     0.2009    -2.9550 C.3     
  26 H26           -3.5718    -1.4811    -0.1244 H       
  27 H27           -7.3651     0.4646     0.0208 H       
  28 H28           -6.2495     2.6553     0.1149 H       
  29 H29           -3.7936     2.7916     0.0961 H       
  30 H30            0.9452     3.4023    -0.1413 H       
  31 H31            2.0868     2.8595     1.9590 H       
  32 H32            2.0036     1.0751     1.6197 H       
  33 H33            2.2907     0.7624    -1.0711 H       
  34 H34            2.4859     2.4248    -1.7813 H       
  35 H35            3.8436     1.4200    -1.8254 H       
  36 H36            4.7906     2.6019    -2.7654 H       
  37 H37            5.7786    -0.0731    -1.6731 H       
  38 H38            5.5048     0.3404    -3.3832 H       
  39 H39            7.2379     2.1187    -3.2176 H       
  40 H40            7.6101     1.0036    -0.4004 H       
  41 H41            8.6698     2.2009    -1.1839 H       
  42 H42            6.8134     3.7948    -1.3628 H       
  43 H43            6.9444     3.2507     0.3296 H       
  44 H44            7.8765    -0.1671    -3.9342 H       
  45 H45            9.1926     0.6062    -3.0187 H       
  46 H46            8.1648    -0.6189    -2.2369 H       
@<TRIPOS>BOND
   1    1    2 1
   2    1   13 1
   3    1    5 2
   4    2    3 1
   5    3    4 2
   6    4    5 1
   7    4    6 1
   8    6    7 ar
   9    6   11 ar
  10    7    8 ar
  11    7   26 1
  12    8    9 ar
  13    8   12 1
  14    9   10 ar
  15    9   27 1
  16   10   11 ar
  17   10   28 1
  18   11   29 1
  19   13   14 1
  20   13   16 1
  21   13   30 1
  22   14   15 1
  23   14   31 1
  24   14   32 1
  25   15   16 1
  26   15   17 am
  27   16   33 1
  28   16   34 1
  29   17   18 am
  30   17   19 2
  31   18   20 1
  32   18   24 1
  33   20   21 1
  34   20   35 1
  35   20   36 1
  36   21   22 1
  37   21   37 1
  38   21   38 1
  39   22   23 1
  40   22   25 1
  41   22   39 1
  42   23   24 1
  43   23   40 1
  44   23   41 1
  45   24   42 1
  46   24   43 1
  47   25   44 1
  48   25   45 1
  49   25   46 1

#	End of record

