#	Name: ASD03330767
#	Creating user name:	WinNT
#	Creation time:	15. 06. 2019 20:37

#	Modifying user name:	WinNT
#	Modification time:	15. 06. 2019 20:37

#	Program:	/corina/corina34_cracker 3.40 0067  02.08.2006

@<TRIPOS>MOLECULE
ASD03330767
  66   68    0    0    0
SMALL
NO_CHARGES


@<TRIPOS>ATOM
   1 C1            -0.7318     3.4211    -1.7311 C.2     
   2 N2            -1.6050     2.4056    -1.9292 N.pl3   
   3 C3             0.4662     2.8627    -1.4012 C.2     
   4 N4             0.3137     1.5206    -1.4194 N.2     
   5 C5            -0.9264     1.2370    -1.7414 C.2     
   6 C6            -1.4940    -0.1226    -1.8772 C.ar    
   7 C7             1.7064     3.5920    -1.0825 C.2     
   8 O8             1.7185     4.8080    -1.1004 O.2     
   9 C9             4.0863     3.6305    -0.5612 C.3     
  10 N10            2.8273     2.9114    -0.7712 N.am    
  11 C11            4.7109     3.9715    -1.9156 C.3     
  12 C12            5.0350     2.7631     0.2254 C.2     
  13 O13            4.7386     1.6147     0.4784 O.2     
  14 C14           -3.0225     2.5573    -2.2690 C.3     
  15 C15           -3.1616     3.5775    -3.4030 C.3     
  16 C16           -3.2687     4.9834    -2.8210 C.3     
  17 N17           -2.4693     5.1089    -1.6004 N.3     
  18 C18           -1.0412     4.8890    -1.8726 C.3     
  19 C19           -0.6973    -1.1716    -2.3370 C.ar    
  20 C20           -2.8266    -0.3623    -1.5407 C.ar    
  21 C21           -3.3499    -1.6324    -1.6696 C.ar    
  22 C22           -2.5563    -2.6671    -2.1315 C.ar    
  23 C23           -1.2325    -2.4372    -2.4615 C.ar    
  24 C24           -2.6883     6.4124    -0.9593 C.3     
  25 N25            6.2130     3.2637     0.6477 N.am    
  26 C26            7.1842     2.3905     1.3114 C.3     
  27 C27            4.9198     2.6863    -2.7190 C.3     
  28 C28            5.9905     1.8292    -2.0408 C.3     
  29 C29            3.6057     1.9051    -2.7822 C.3     
  30 C30            5.3720     3.0393    -4.1374 C.3     
  31 C31            6.5222     4.6810     0.4429 C.3     
  32 H32            3.8919     4.5499    -0.0089 H       
  33 H33            2.8004     1.9455    -0.6861 H       
  34 H34            4.0465     4.6391    -2.4643 H       
  35 H35            5.6714     4.4626    -1.7595 H       
  36 H36           -3.4245     1.5969    -2.5917 H       
  37 H37           -3.5712     2.9075    -1.3946 H       
  38 H38           -2.2879     3.5194    -4.0521 H       
  39 H39           -4.0580     3.3557    -3.9823 H       
  40 H40           -2.9128     5.7038    -3.5575 H       
  41 H41           -4.3122     5.1962    -2.5888 H       
  42 H42           -0.4428     5.4577    -1.1609 H       
  43 H43           -0.8093     5.2140    -2.8869 H       
  44 H44            0.3361    -0.9932    -2.5953 H       
  45 H45           -3.4470     0.4446    -1.1796 H       
  46 H46           -4.3812    -1.8192    -1.4090 H       
  47 H47           -2.9705    -3.6596    -2.2303 H       
  48 H48           -0.6182    -3.2490    -2.8219 H       
  49 H49           -3.7417     6.5170    -0.6995 H       
  50 H50           -2.0828     6.4791    -0.0555 H       
  51 H51           -2.4030     7.2082    -1.6474 H       
  52 H52            7.8463     1.9505     0.5657 H       
  53 H53            7.7720     2.9736     2.0204 H       
  54 H54            6.6569     1.5977     1.8420 H       
  55 H55            5.5479     1.2911    -1.2025 H       
  56 H56            6.3931     1.1151    -2.7592 H       
  57 H57            6.7932     2.4709    -1.6775 H       
  58 H58            2.7763     2.5996    -2.9161 H       
  59 H59            3.6365     1.2097    -3.6210 H       
  60 H60            3.4683     1.3496    -1.8545 H       
  61 H61            6.3081     3.5958    -4.0923 H       
  62 H62            5.5208     2.1237    -4.7097 H       
  63 H63            4.6092     3.6499    -4.6205 H       
  64 H64            5.6551     5.1839     0.0150 H       
  65 H65            6.7732     5.1399     1.3992 H       
  66 H66            7.3685     4.7736    -0.2377 H       
@<TRIPOS>BOND
   1    1    2 1
   2    1    3 2
   3    1   18 1
   4    2   14 1
   5    2    5 1
   6    3    4 1
   7    3    7 1
   8    4    5 2
   9    5    6 1
  10    6   20 ar
  11    6   19 ar
  12    7    8 2
  13    7   10 am
  14    9   10 1
  15    9   11 1
  16    9   12 1
  17    9   32 1
  18   10   33 1
  19   11   27 1
  20   11   34 1
  21   11   35 1
  22   12   13 2
  23   12   25 am
  24   14   15 1
  25   14   36 1
  26   14   37 1
  27   15   16 1
  28   15   38 1
  29   15   39 1
  30   16   17 1
  31   16   40 1
  32   16   41 1
  33   17   18 1
  34   17   24 1
  35   18   42 1
  36   18   43 1
  37   19   23 ar
  38   19   44 1
  39   20   21 ar
  40   20   45 1
  41   21   22 ar
  42   21   46 1
  43   22   23 ar
  44   22   47 1
  45   23   48 1
  46   24   49 1
  47   24   50 1
  48   24   51 1
  49   25   26 1
  50   25   31 1
  51   26   52 1
  52   26   53 1
  53   26   54 1
  54   27   29 1
  55   27   30 1
  56   27   28 1
  57   28   55 1
  58   28   56 1
  59   28   57 1
  60   29   58 1
  61   29   59 1
  62   29   60 1
  63   30   61 1
  64   30   62 1
  65   30   63 1
  66   31   64 1
  67   31   65 1
  68   31   66 1

#	End of record

