#	Name: ASD01140112
#	Creating user name:	WinNT
#	Creation time:	15. 06. 2019 18:59

#	Modifying user name:	WinNT
#	Modification time:	15. 06. 2019 18:59

#	Program:	/corina/corina34_cracker 3.40 0067  02.08.2006

@<TRIPOS>MOLECULE
ASD01140112
  45   46    0    0    0
SMALL
NO_CHARGES


@<TRIPOS>ATOM
   1 C1            -0.0625     1.3127    -0.3993 C.3     
   2 C2             0.1252    -0.2122    -0.2491 C.3     
   3 C3             1.6325    -0.4068    -0.5254 C.3     
   4 C4             2.1524     0.9874    -0.8103 C.2     
   5 O5             1.2810     1.8727    -0.2929 O.3     
   6 O6             3.1723     1.2574    -1.3993 O.2     
   7 N7            -0.2123    -0.6441     1.1095 N.am    
   8 C8             2.3285    -0.9949     0.7037 C.3     
   9 C9             1.8393    -1.3121    -1.7413 C.3     
  10 S10           -1.7198    -1.2465     1.4364 S.o2    
  11 C11            3.7943    -1.2813     0.3714 C.3     
  12 C12            4.5217    -1.7477     1.6341 C.3     
  13 C13            1.1763    -0.6798    -2.9666 C.3     
  14 C14            1.2972    -1.6304    -4.1594 C.3     
  15 C15           -1.8877    -2.7502     0.5335 C.ar    
  16 O16           -1.7201    -1.6022     2.8121 O.2     
  17 O17           -2.6486    -0.3324     0.8698 O.2     
  18 C18           -1.5087    -3.9482     1.1100 C.ar    
  19 C19           -1.6402    -5.1281     0.4023 C.ar    
  20 C20           -2.1511    -5.1101    -0.8833 C.ar    
  21 C21           -2.5302    -3.9108    -1.4597 C.ar    
  22 C22           -2.4036    -2.7322    -0.7489 C.ar    
  23 Cl23          -2.3160    -6.5916    -1.7731 Cl      
  24 H24           -0.4943     1.5469    -1.3723 H       
  25 H25           -0.6970     1.6965     0.3996 H       
  26 H26           -0.4738    -0.7485    -0.9850 H       
  27 H27            0.4473    -0.5773     1.8176 H       
  28 H28            2.2750    -0.2827     1.5271 H       
  29 H29            1.8336    -1.9221     0.9926 H       
  30 H30            2.9066    -1.4325    -1.9273 H       
  31 H31            1.3918    -2.2872    -1.5486 H       
  32 H32            3.8490    -2.0609    -0.3884 H       
  33 H33            4.2656    -0.3733    -0.0050 H       
  34 H34            5.5659    -1.9517     1.3974 H       
  35 H35            4.4670    -0.9681     2.3939 H       
  36 H36            4.0504    -2.6556     2.0105 H       
  37 H37            0.1232    -0.4946    -2.7549 H       
  38 H38            1.6709     0.2627    -3.2016 H       
  39 H39            2.3503    -1.8156    -4.3711 H       
  40 H40            0.8026    -2.5729    -3.9245 H       
  41 H41            0.8248    -1.1799    -5.0323 H       
  42 H42           -1.1095    -3.9621     2.1134 H       
  43 H43           -1.3437    -6.0639     0.8526 H       
  44 H44           -2.9292    -3.8962    -2.4632 H       
  45 H45           -2.6995    -1.7960    -1.1987 H       
@<TRIPOS>BOND
   1    1    2 1
   2    1    5 1
   3    1   24 1
   4    1   25 1
   5    2    3 1
   6    2    7 1
   7    2   26 1
   8    3    4 1
   9    3    9 1
  10    3    8 1
  11    4    5 1
  12    4    6 2
  13    7   10 am
  14    7   27 1
  15    8   11 1
  16    8   28 1
  17    8   29 1
  18    9   13 1
  19    9   30 1
  20    9   31 1
  21   10   15 1
  22   10   16 2
  23   10   17 2
  24   11   12 1
  25   11   32 1
  26   11   33 1
  27   12   34 1
  28   12   35 1
  29   12   36 1
  30   13   14 1
  31   13   37 1
  32   13   38 1
  33   14   39 1
  34   14   40 1
  35   14   41 1
  36   15   18 ar
  37   15   22 ar
  38   18   19 ar
  39   18   42 1
  40   19   20 ar
  41   19   43 1
  42   20   21 ar
  43   20   23 1
  44   21   22 ar
  45   21   44 1
  46   22   45 1

#	End of record

