#	Name: ASD01816787
#	Creating user name:	WinNT
#	Creation time:	15. 06. 2019 19:35

#	Modifying user name:	WinNT
#	Modification time:	15. 06. 2019 19:35

#	Program:	/corina/corina34_cracker 3.40 0067  02.08.2006

@<TRIPOS>MOLECULE
ASD01816787
  62   66    0    0    0
SMALL
NO_CHARGES


@<TRIPOS>ATOM
   1 C1            -0.2184     1.1961     0.0718 C.ar    
   2 C2            -0.1234    -0.1946     0.0625 C.ar    
   3 C3             1.0894    -0.8127     0.0274 C.ar    
   4 C4             2.2617    -0.0410    -0.0004 C.ar    
   5 C5             2.1683     1.3755     0.0085 C.ar    
   6 C6             0.8956     1.9763     0.0456 C.ar    
   7 C7             3.5332    -0.6439    -0.0366 C.ar    
   8 C8             4.6316     0.1660    -0.0618 C.ar    
   9 C9             4.4713     1.5596    -0.0513 C.ar    
  10 N10            3.2761     2.1159    -0.0177 N.ar    
  11 C11            3.6778    -2.1439    -0.0467 C.3     
  12 C12            5.6735     2.4272    -0.0785 C.2     
  13 O13            6.7814     1.9293    -0.1095 O.2     
  14 N14            5.5372     3.7680    -0.0688 N.am    
  15 C15            6.7250     4.6252    -0.0957 C.3     
  16 C16            7.1747     4.8282    -1.5440 C.3     
  17 C17            6.3897     5.9810     0.5290 C.3     
  18 C18            7.6301     6.8762     0.5009 C.3     
  19 C19            8.0799     7.0792    -0.9473 C.3     
  20 C20            8.4152     5.7234    -1.5721 C.3     
  21 O21            5.9696     5.7914     1.8816 O.3     
  22 C22            3.5654    -2.6499    -1.4617 C.ar    
  23 C23            4.6934    -2.7694    -2.2515 C.ar    
  24 C24            2.3289    -3.0057    -1.9823 C.ar    
  25 C25            2.2685    -3.4657    -3.2860 C.ar    
  26 C26            3.4448    -3.5554    -4.0275 C.ar    
  27 N27            4.6082    -3.2102    -3.4906 N.ar    
  28 C28            3.3971    -4.0469    -5.4259 C.2     
  29 C29            3.9951    -3.5092    -6.5314 C.2     
  30 C30            2.7229    -5.1938    -5.9329 C.2     
  31 N31            2.9647    -5.2231    -7.2099 N.2     
  32 O32            3.6647    -4.3020    -7.5589 O.3     
  33 C33            1.8949    -6.1772    -5.1466 C.3     
  34 C34            4.8535    -2.2717    -6.5835 C.3     
  35 H35           -1.1926     1.6618     0.0957 H       
  36 H36           -1.0241    -0.7900     0.0838 H       
  37 H37            1.1491    -1.8911     0.0212 H       
  38 H38            0.8041     3.0524     0.0526 H       
  39 H39            5.6216    -0.2649    -0.0894 H       
  40 H40            4.6509    -2.4178     0.3609 H       
  41 H41            2.8906    -2.5889     0.5620 H       
  42 H42            4.6527     4.1654    -0.0441 H       
  43 H43            7.5271     4.1524     0.4710 H       
  44 H44            7.4136     3.8623    -1.9890 H       
  45 H45            6.3726     5.3009    -2.1107 H       
  46 H46            5.5875     6.4537    -0.0377 H       
  47 H47            7.3913     7.8421     0.9460 H       
  48 H48            8.4323     6.4034     1.0676 H       
  49 H49            7.2778     7.5519    -1.5140 H       
  50 H50            8.9636     7.7169    -0.9673 H       
  51 H51            9.2173     5.2506    -1.0054 H       
  52 H52            8.7356     5.8680    -2.6038 H       
  53 H53            5.7405     6.6109     2.3409 H       
  54 H54            5.6575    -2.4976    -1.8479 H       
  55 H55            1.4340    -2.9256    -1.3831 H       
  56 H56            1.3229    -3.7514    -3.7225 H       
  57 H57            0.8767    -5.8001    -5.0508 H       
  58 H58            1.8799    -7.1360    -5.6650 H       
  59 H59            2.3291    -6.3070    -4.1553 H       
  60 H60            5.8962    -2.5458    -6.4225 H       
  61 H61            4.7490    -1.7977    -7.5595 H       
  62 H62            4.5364    -1.5765    -5.8061 H       
@<TRIPOS>BOND
   1    1    2 ar
   2    1    6 ar
   3    1   35 1
   4    2    3 ar
   5    2   36 1
   6    3    4 ar
   7    3   37 1
   8    4    5 ar
   9    4    7 ar
  10    5    6 ar
  11    5   10 ar
  12    6   38 1
  13    7    8 ar
  14    7   11 1
  15    8    9 ar
  16    8   39 1
  17    9   10 ar
  18    9   12 1
  19   11   22 1
  20   11   40 1
  21   11   41 1
  22   12   13 2
  23   12   14 am
  24   14   15 1
  25   14   42 1
  26   15   16 1
  27   15   17 1
  28   15   43 1
  29   16   20 1
  30   16   44 1
  31   16   45 1
  32   17   18 1
  33   17   21 1
  34   17   46 1
  35   18   19 1
  36   18   47 1
  37   18   48 1
  38   19   20 1
  39   19   49 1
  40   19   50 1
  41   20   51 1
  42   20   52 1
  43   21   53 1
  44   22   23 ar
  45   22   24 ar
  46   23   27 ar
  47   23   54 1
  48   24   25 ar
  49   24   55 1
  50   25   26 ar
  51   25   56 1
  52   26   27 ar
  53   26   28 1
  54   28   29 2
  55   28   30 1
  56   29   34 1
  57   29   32 1
  58   30   31 2
  59   30   33 1
  60   31   32 1
  61   33   57 1
  62   33   58 1
  63   33   59 1
  64   34   60 1
  65   34   61 1
  66   34   62 1

#	End of record

