#	Name: ASD01152580
#	Creating user name:	WinNT
#	Creation time:	15. 06. 2019 19:06

#	Modifying user name:	WinNT
#	Modification time:	15. 06. 2019 19:06

#	Program:	/corina/corina34_cracker 3.40 0067  02.08.2006

@<TRIPOS>MOLECULE
ASD01152580
  50   52    0    0    0
SMALL
NO_CHARGES


@<TRIPOS>ATOM
   1 C1            -0.2745     1.2321     0.5626 C.2     
   2 N2            -0.3408    -0.0719     0.4960 N.2     
   3 N3            -1.5372    -0.7289     0.2095 N.am    
   4 C4            -2.7229    -0.0978     0.1933 C.2     
   5 C5            -2.8219     1.3505     0.6108 C.3     
   6 C6            -1.4968     2.0135     0.3084 C.2     
   7 C7            -3.1083     1.4387     2.1112 C.3     
   8 O8            -1.4411     3.1423    -0.1337 O.2     
   9 N9             0.9273     1.8698     0.8736 N.pl3   
  10 C10           -1.5010    -2.0990    -0.0725 C.ar    
  11 O11           -3.7187    -0.6936    -0.1587 O.2     
  12 C12           -4.4659     0.8511     2.3988 C.ar    
  13 C13           -2.3753    -2.9638     0.5703 C.ar    
  14 C14           -0.5932    -2.5944    -1.0008 C.ar    
  15 C15           -0.5572    -3.9467    -1.2799 C.ar    
  16 C16           -1.4230    -4.8111    -0.6376 C.ar    
  17 C17           -2.3361    -4.3218     0.2879 C.ar    
  18 C18           -4.5887    -0.4948     2.6893 C.ar    
  19 C19           -5.5872     1.6594     2.3776 C.ar    
  20 C20           -6.8325     1.1211     2.6417 C.ar    
  21 C21           -5.8336    -1.0343     2.9532 C.ar    
  22 C22           -6.9568    -0.2269     2.9270 C.ar    
  23 Cl23          -8.5206    -0.9037     3.2589 Cl      
  24 C24            2.0959     1.0786     1.2669 C.3     
  25 C25            1.0203     3.3303     0.8067 C.3     
  26 N26           -3.2157    -5.1973     0.9343 N.am    
  27 C27           -2.8334    -6.4620     1.2002 C.2     
  28 O28           -1.6959    -6.8132     0.9682 O.2     
  29 C29           -3.8193    -7.4398     1.7858 C.3     
  30 H30           -3.6188     1.8418     0.0527 H       
  31 H31           -2.3480     0.8824     2.6595 H       
  32 H32           -3.0906     2.4828     2.4237 H       
  33 H33           -3.0846    -2.5809     1.2892 H       
  34 H34            0.0846    -1.9213    -1.5048 H       
  35 H35            0.1490    -4.3292    -2.0020 H       
  36 H36           -1.3926    -5.8679    -0.8583 H       
  37 H37           -3.7119    -1.1250     2.7097 H       
  38 H38           -5.4900     2.7117     2.1549 H       
  39 H39           -7.7083     1.7529     2.6258 H       
  40 H40           -5.9295    -2.0859     3.1798 H       
  41 H41            2.3611     0.3962     0.4594 H       
  42 H42            2.9343     1.7450     1.4696 H       
  43 H43            1.8616     0.5060     2.1643 H       
  44 H44            0.6629     3.7603     1.7424 H       
  45 H45            2.0584     3.6213     0.6462 H       
  46 H46            0.4087     3.6959    -0.0182 H       
  47 H47           -4.1005    -4.8939     1.1909 H       
  48 H48           -4.7817    -6.9470     1.9235 H       
  49 H49           -3.9378    -8.2858     1.1088 H       
  50 H50           -3.4514    -7.7939     2.7489 H       
@<TRIPOS>BOND
   1    1    2 2
   2    1    9 1
   3    1    6 1
   4    2    3 1
   5    3    4 am
   6    3   10 1
   7    4    5 1
   8    4   11 2
   9    5    6 1
  10    5    7 1
  11    5   30 1
  12    6    8 2
  13    7   12 1
  14    7   31 1
  15    7   32 1
  16    9   24 1
  17    9   25 1
  18   10   13 ar
  19   10   14 ar
  20   12   18 ar
  21   12   19 ar
  22   13   17 ar
  23   13   33 1
  24   14   15 ar
  25   14   34 1
  26   15   16 ar
  27   15   35 1
  28   16   17 ar
  29   16   36 1
  30   17   26 1
  31   18   21 ar
  32   18   37 1
  33   19   20 ar
  34   19   38 1
  35   20   22 ar
  36   20   39 1
  37   21   22 ar
  38   21   40 1
  39   22   23 1
  40   24   41 1
  41   24   42 1
  42   24   43 1
  43   25   44 1
  44   25   45 1
  45   25   46 1
  46   26   27 am
  47   26   47 1
  48   27   28 2
  49   27   29 1
  50   29   48 1
  51   29   49 1
  52   29   50 1

#	End of record

