#	Name: ASD01885474
#	Creating user name:	WinNT
#	Creation time:	15. 06. 2019 19:49

#	Modifying user name:	WinNT
#	Modification time:	15. 06. 2019 19:49

#	Program:	/corina/corina34_cracker 3.40 0067  02.08.2006

@<TRIPOS>MOLECULE
ASD01885474
  48   51    0    0    0
SMALL
NO_CHARGES


@<TRIPOS>ATOM
   1 C1             0.0738     0.9492     0.4522 C.ar    
   2 C2             0.0706    -0.2173    -0.3137 C.ar    
   3 N3            -1.0008    -1.0403    -0.4315 N.2     
   4 C4            -2.2228    -0.6812    -0.5812 C.2     
   5 C5            -2.6245     0.7702    -0.6086 C.3     
   6 C6            -2.2866     1.3766     0.7299 C.2     
   7 N7            -1.0268     1.4052     1.1646 N.am    
   8 C8             1.2329     1.7214     0.5179 C.ar    
   9 C9             2.3736     1.3448    -0.1711 C.ar    
  10 C10            2.3695     0.1843    -0.9398 C.ar    
  11 C11            1.2354    -0.5867    -1.0113 C.ar    
  12 C12           -3.2614    -1.7159    -0.7308 C.ar    
  13 O13           -3.1699     1.8440     1.4172 O.2     
  14 C14           -2.9295    -3.0761    -0.7113 C.ar    
  15 C15           -3.9449    -4.0177    -0.8559 C.ar    
  16 N16           -5.2074    -3.6345    -1.0099 N.ar    
  17 C17           -5.5533    -2.3645    -1.0327 C.ar    
  18 C18           -4.6093    -1.3653    -0.8907 C.ar    
  19 N19            3.5269     2.1290    -0.0952 N.pl3   
  20 C20            4.7508     1.5338     0.0453 C.2     
  21 N21            5.8501     2.2657     0.0033 N.2     
  22 N22            4.8364     0.1809     0.2293 N.pl3   
  23 C23            6.0861    -0.4245     0.3964 C.ar    
  24 C24            5.7747     3.5850    -0.2962 C.1     
  25 N25            5.7114     4.6911    -0.5474 N.1     
  26 C26            7.0945     0.2391     1.0832 C.ar    
  27 C27            8.3275    -0.3614     1.2464 C.ar    
  28 C28            8.5584    -1.6220     0.7270 C.ar    
  29 C29            7.5565    -2.2854     0.0427 C.ar    
  30 C30            6.3195    -1.6929    -0.1191 C.ar    
  31 C31           -3.6248    -5.4133    -0.8390 C.1     
  32 N32           -3.3710    -6.5205    -0.8256 N.1     
  33 H33           -2.0774     1.2886    -1.3960 H       
  34 H34           -3.6963     0.8519    -0.7894 H       
  35 H35           -0.8664     1.7712     2.0485 H       
  36 H36            1.2411     2.6230     1.1124 H       
  37 H37            3.2575    -0.1093    -1.4799 H       
  38 H38            1.2376    -1.4861    -1.6093 H       
  39 H39           -1.9035    -3.3895    -0.5866 H       
  40 H40           -6.5924    -2.0993    -1.1606 H       
  41 H41           -4.9053    -0.3269    -0.9111 H       
  42 H42            3.4602     3.0956    -0.1421 H       
  43 H43            4.0303    -0.3586     0.2438 H       
  44 H44            6.9149     1.2238     1.4888 H       
  45 H45            9.1122     0.1542     1.7801 H       
  46 H46            9.5236    -2.0893     0.8557 H       
  47 H47            7.7401    -3.2698    -0.3618 H       
  48 H48            5.5374    -2.2115    -0.6536 H       
@<TRIPOS>BOND
   1    1    2 ar
   2    1    8 ar
   3    1    7 1
   4    2    3 1
   5    2   11 ar
   6    3    4 2
   7    4    5 1
   8    4   12 1
   9    5    6 1
  10    5   33 1
  11    5   34 1
  12    6    7 am
  13    6   13 2
  14    7   35 1
  15    8    9 ar
  16    8   36 1
  17    9   10 ar
  18    9   19 1
  19   10   11 ar
  20   10   37 1
  21   11   38 1
  22   12   14 ar
  23   12   18 ar
  24   14   15 ar
  25   14   39 1
  26   15   16 ar
  27   15   31 1
  28   16   17 ar
  29   17   18 ar
  30   17   40 1
  31   18   41 1
  32   19   20 1
  33   19   42 1
  34   20   21 2
  35   20   22 1
  36   21   24 1
  37   22   23 1
  38   22   43 1
  39   23   26 ar
  40   23   30 ar
  41   24   25 3
  42   26   27 ar
  43   26   44 1
  44   27   28 ar
  45   27   45 1
  46   28   29 ar
  47   28   46 1
  48   29   30 ar
  49   29   47 1
  50   30   48 1
  51   31   32 3

#	End of record

