#	Name: ASD05720206
#	Creating user name:	WinNT
#	Creation time:	15. 06. 2019 21:02

#	Modifying user name:	WinNT
#	Modification time:	15. 06. 2019 21:02

#	Program:	/corina/corina34_cracker 3.40 0067  02.08.2006

@<TRIPOS>MOLECULE
ASD05720206
  35   38    0    0    0
SMALL
NO_CHARGES


@<TRIPOS>ATOM
   1 O1            -0.0161     1.3334     0.0094 O.3     
   2 C2             0.0021    -0.0041     0.0020 C.2     
   3 N3             1.2348    -0.5293    -0.0126 N.am    
   4 C4             2.2183     0.5645    -0.0161 C.3     
   5 C5             1.3508     1.8379    -0.0010 C.3     
   6 O6            -1.0069    -0.6808     0.0087 O.2     
   7 C7             3.0621     0.5136    -1.2636 C.ar    
   8 C8             4.4341     0.6753    -1.1693 C.ar    
   9 C9             5.2011     0.6260    -2.3255 C.ar    
  10 C10            4.5575     0.4155    -3.5352 C.ar    
  11 C11            3.1841     0.2628    -3.5504 C.ar    
  12 N12            2.4866     0.3102    -2.4322 N.ar    
  13 C13            2.4752     0.0340    -4.8605 C.3     
  14 F14            5.0184     0.8787     0.0317 F       
  15 C15            3.0998    -3.5861    -0.0446 C.2     
  16 N16            2.7924    -2.2814    -0.0357 N.2     
  17 C17            1.5350    -1.8858    -0.0220 C.2     
  18 C18            0.4938    -2.8374    -0.0165 C.2     
  19 C19            0.7983    -4.1544    -0.0253 C.2     
  20 N20            2.1111    -4.5364    -0.0395 N.pl3   
  21 N21            2.7293    -5.7921    -0.0510 N.2     
  22 C22            4.0323    -5.6237    -0.0626 C.2     
  23 C23            4.3115    -4.2644    -0.0648 C.2     
  24 Br24           6.0310    -3.4778    -0.0879 Br      
  25 H25            2.8457     0.5180     0.8740 H       
  26 H26            1.5314     2.4339    -0.8956 H       
  27 H27            1.5485     2.4243     0.8964 H       
  28 H28            6.2732     0.7490    -2.2836 H       
  29 H29            5.1225     0.3717    -4.4546 H       
  30 H30            2.4159    -1.0360    -5.0594 H       
  31 H31            1.4691     0.4499    -4.8067 H       
  32 H32            3.0280     0.5227    -5.6628 H       
  33 H33           -0.5374    -2.5166    -0.0049 H       
  34 H34            0.0136    -4.8964    -0.0208 H       
  35 H35            4.7671    -6.4151    -0.0732 H       
@<TRIPOS>BOND
   1    1    2 1
   2    1    5 1
   3    2    3 am
   4    2    6 2
   5    3    4 1
   6    3   17 1
   7    4    5 1
   8    4    7 1
   9    4   25 1
  10    5   26 1
  11    5   27 1
  12    7    8 ar
  13    7   12 ar
  14    8    9 ar
  15    8   14 1
  16    9   10 ar
  17    9   28 1
  18   10   11 ar
  19   10   29 1
  20   11   12 ar
  21   11   13 1
  22   13   30 1
  23   13   31 1
  24   13   32 1
  25   15   16 1
  26   15   20 1
  27   15   23 2
  28   16   17 2
  29   17   18 1
  30   18   19 2
  31   18   33 1
  32   19   20 1
  33   19   34 1
  34   20   21 1
  35   21   22 2
  36   22   23 1
  37   22   35 1
  38   23   24 1

#	End of record

