#	Name: ASD01100047
#	Creating user name:	WinNT
#	Creation time:	15. 06. 2019 18:58

#	Modifying user name:	WinNT
#	Modification time:	15. 06. 2019 18:58

#	Program:	/corina/corina34_cracker 3.40 0067  02.08.2006

@<TRIPOS>MOLECULE
ASD01100047
  34   35    0    0    0
SMALL
NO_CHARGES


@<TRIPOS>ATOM
   1 C1             0.1623     1.2948    -0.9231 C.ar    
   2 C2             0.2403    -0.0848    -0.9932 C.ar    
   3 C3             1.4412    -0.7231    -0.7393 C.ar    
   4 C4             2.5623     0.0177    -0.4158 C.ar    
   5 C5             2.4839     1.3961    -0.3459 C.ar    
   6 C6             1.2841     2.0345    -0.5995 C.ar    
   7 C7             3.7065     2.2032     0.0074 C.3     
   8 C8             3.4373     3.0054     1.2821 C.3     
   9 C9             3.2214     2.0447     2.4532 C.3     
  10 C10            4.6355     3.9095     1.5784 C.3     
  11 Cl11          -1.1685    -1.0146    -1.3991 Cl      
  12 C12            4.0285     3.1477    -1.1219 C.2     
  13 N13            5.1808     3.8466    -1.1081 N.am    
  14 O14            3.2507     3.2789    -2.0432 O.2     
  15 C15            5.4412     4.7777    -2.1074 C.2     
  16 N16            6.5141     5.4999    -2.1872 N.2     
  17 C17            6.5973     6.3366    -3.2055 C.2     
  18 C18            5.5429     6.3193    -4.0248 C.2     
  19 S19            4.3956     5.1306    -3.4131 S.3     
  20 Cl20           5.3410     7.2933    -5.4476 Cl      
  21 H21           -0.7738     1.7939    -1.1256 H       
  22 H22            1.5025    -1.7999    -0.7936 H       
  23 H23            3.4998    -0.4804    -0.2172 H       
  24 H24            1.2234     3.1114    -0.5447 H       
  25 H25            4.5497     1.5323     0.1716 H       
  26 H26            2.5456     3.6171     1.1449 H       
  27 H27            4.1130     1.4330     2.5904 H       
  28 H28            3.0296     2.6162     3.3613 H       
  29 H29            2.3678     1.4006     2.2422 H       
  30 H30            5.5042     3.2954     1.8155 H       
  31 H31            4.8522     4.5235     0.7042 H       
  32 H32            4.4036     4.5538     2.4264 H       
  33 H33            5.8285     3.7000    -0.4010 H       
  34 H34            7.4485     6.9825    -3.3627 H       
@<TRIPOS>BOND
   1    1    2 ar
   2    1    6 ar
   3    1   21 1
   4    2    3 ar
   5    2   11 1
   6    3    4 ar
   7    3   22 1
   8    4    5 ar
   9    4   23 1
  10    5    6 ar
  11    5    7 1
  12    6   24 1
  13    7    8 1
  14    7   12 1
  15    7   25 1
  16    8    9 1
  17    8   10 1
  18    8   26 1
  19    9   27 1
  20    9   28 1
  21    9   29 1
  22   10   30 1
  23   10   31 1
  24   10   32 1
  25   12   13 am
  26   12   14 2
  27   13   15 1
  28   13   33 1
  29   15   16 2
  30   15   19 1
  31   16   17 1
  32   17   18 2
  33   17   34 1
  34   18   19 1
  35   18   20 1

#	End of record

