#	Name: ASD01911962
#	Creating user name:	WinNT
#	Creation time:	15. 06. 2019 19:58

#	Modifying user name:	WinNT
#	Modification time:	15. 06. 2019 19:58

#	Program:	/corina/corina34_cracker 3.40 0067  02.08.2006

@<TRIPOS>MOLECULE
ASD01911962
  35   37    0    0    0
SMALL
NO_CHARGES


@<TRIPOS>ATOM
   1 C1             0.7320     1.1455    -0.1735 C.ar    
   2 C2             0.5288    -0.2325    -0.1623 C.ar    
   3 C3             1.6393    -1.0637    -0.2889 C.ar    
   4 N4             2.8376    -0.5184    -0.4143 N.ar    
   5 C5             2.9881     0.7910    -0.4203 C.ar    
   6 N6             1.9631     1.6112    -0.3030 N.ar    
   7 N7            -0.7555    -0.7669    -0.0271 N.pl3   
   8 C8            -0.9385    -2.1533    -0.0182 C.ar    
   9 C9            -1.3417    -4.2067    -1.2014 C.ar    
  10 C10           -1.3036    -4.9034    -0.0057 C.ar    
  11 C11           -1.0879    -4.2264     1.1873 C.ar    
  12 C12           -0.9055    -2.8505     1.1811 C.ar    
  13 N13           -1.0497    -4.9320     2.3954 N.am    
  14 C14           -0.5162    -6.1690     2.4367 C.2     
  15 C15           -0.3822    -6.8703     3.7244 C.2     
  16 O16           -0.1454    -6.7060     1.4101 O.2     
  17 C17            0.1431    -8.1110     3.8393 C.2     
  18 C18           -1.1596    -2.8340    -1.2108 C.ar    
  19 F19           -1.5516    -4.8675    -2.3609 F       
  20 F20           -1.1970    -2.1558    -2.3787 F       
  21 C21           -1.9099     0.1252     0.1052 C.3     
  22 S22            0.1234    -8.5680     5.4864 S.3     
  23 C23           -0.5845    -7.0775     5.9264 C.2     
  24 N24           -0.7629    -6.3382     4.8888 N.2     
  25 H25           -0.1036     1.8235    -0.0823 H       
  26 H26            1.5235    -2.1375    -0.2845 H       
  27 H27            3.9806     1.2040    -0.5244 H       
  28 H28           -1.4459    -5.9739    -0.0004 H       
  29 H29           -0.7377    -2.3232     2.1085 H       
  30 H30           -1.4071    -4.5308     3.2029 H       
  31 H31            0.5143    -8.7144     3.0241 H       
  32 H32           -2.3072     0.3546    -0.8836 H       
  33 H33           -2.6802    -0.3634     0.7018 H       
  34 H34           -1.6014     1.0484     0.5959 H       
  35 H35           -0.8424    -6.7933     6.9359 H       
@<TRIPOS>BOND
   1    1    2 ar
   2    1    6 ar
   3    1   25 1
   4    2    3 ar
   5    2    7 1
   6    3    4 ar
   7    3   26 1
   8    4    5 ar
   9    5    6 ar
  10    5   27 1
  11    7    8 1
  12    7   21 1
  13    8   18 ar
  14    8   12 ar
  15    9   10 ar
  16    9   18 ar
  17    9   19 1
  18   10   11 ar
  19   10   28 1
  20   11   12 ar
  21   11   13 1
  22   12   29 1
  23   13   14 am
  24   13   30 1
  25   14   15 1
  26   14   16 2
  27   15   17 2
  28   15   24 1
  29   17   22 1
  30   17   31 1
  31   18   20 1
  32   21   32 1
  33   21   33 1
  34   21   34 1
  35   22   23 1
  36   23   24 2
  37   23   35 1

#	End of record

