#	Name: ASD09740447
#	Creating user name:	WinNT
#	Creation time:	15. 06. 2019 21:23

#	Modifying user name:	WinNT
#	Modification time:	15. 06. 2019 21:23

#	Program:	/corina/corina34_cracker 3.40 0067  02.08.2006

@<TRIPOS>MOLECULE
ASD09740447
  65   69    0    0    0
SMALL
NO_CHARGES


@<TRIPOS>ATOM
   1 N1            -0.0151     1.3053     0.0121 N.2     
   2 C2             0.0028    -0.0042     0.0021 C.2     
   3 C3             1.1360     1.9169    -0.0038 C.2     
   4 S4             2.4286     0.7206    -0.0357 S.3     
   5 C5             1.2290    -0.5707    -0.0239 C.2     
   6 C6             1.3265     3.3822     0.0030 C.ar    
   7 C7             0.2206     4.2279     0.0287 C.ar    
   8 C8             2.6175     3.9196    -0.0106 C.ar    
   9 C9             2.8009     5.2852    -0.0040 C.ar    
  10 C10            1.7059     6.1376     0.0163 C.ar    
  11 C11            0.4063     5.6097     0.0349 C.ar    
  12 O12            1.8923     7.4813     0.0232 O.3     
  13 C13            3.2384     7.9489     0.1299 C.3     
  14 C14            3.8769     7.9868    -1.2600 C.3     
  15 C15            3.2435     9.3555     0.7320 C.3     
  16 C16           -0.7254     6.4869     0.0558 C.1     
  17 N17           -1.6232     7.1827     0.0724 N.1     
  18 C18            1.5148    -2.0206    -0.0391 C.ar    
  19 C19            2.3970    -2.5504    -0.9858 C.ar    
  20 C20            2.6598    -3.9044    -0.9943 C.ar    
  21 C21            2.0488    -4.7337    -0.0660 C.ar    
  22 C22            1.1753    -4.2151     0.8712 C.ar    
  23 C23            0.9094    -2.8614     0.8946 C.ar    
  24 C24            3.1790    -1.8686    -2.0878 C.3     
  25 C25            3.6059    -3.0044    -3.0417 C.3     
  26 C26            3.6382    -4.2292    -2.1031 C.3     
  27 N27            3.2097    -5.4353    -2.8239 N.3     
  28 C28            3.7673    -6.6449    -2.2043 C.3     
  29 C29            3.3070    -7.8590    -2.9693 C.2     
  30 N30            3.6971    -9.0889    -2.5797 N.am    
  31 O31            2.5855    -7.7294    -3.9355 O.2     
  32 C32            3.3241   -10.3527    -3.2316 C.3     
  33 C33            3.9796   -11.4945    -2.4265 C.3     
  34 C34            4.2196   -10.8467    -1.0372 C.3     
  35 C35            4.5736    -9.3891    -1.4330 C.3     
  36 H36           -0.9029    -0.5924     0.0141 H       
  37 H37           -0.7773     3.8151     0.0433 H       
  38 H38            3.4739     3.2618    -0.0261 H       
  39 H39            3.8006     5.6937    -0.0142 H       
  40 H40            3.8067     7.2766     0.7726 H       
  41 H41            3.3086     8.6592    -1.9027 H       
  42 H42            4.9037     8.3435    -1.1785 H       
  43 H43            3.8733     6.9848    -1.6889 H       
  44 H44            2.7886     9.3285     1.7222 H       
  45 H45            4.2702     9.7122     0.8134 H       
  46 H46            2.6751    10.0279     0.0893 H       
  47 H47            2.2569    -5.7934    -0.0756 H       
  48 H48            0.7044    -4.8696     1.5898 H       
  49 H49            0.2272    -2.4558     1.6271 H       
  50 H50            2.5471    -1.1516    -2.6121 H       
  51 H51            4.0567    -1.3703    -1.6761 H       
  52 H52            2.8699    -3.1425    -3.8339 H       
  53 H53            4.5939    -2.8095    -3.4588 H       
  54 H54            4.6397    -4.3670    -1.6955 H       
  55 H55            2.2034    -5.4869    -2.8763 H       
  56 H56            4.8559    -6.5944    -2.2238 H       
  57 H57            3.4252    -6.7149    -1.1717 H       
  58 H58            2.2403   -10.4682    -3.2235 H       
  59 H59            3.6925   -10.3635    -4.2574 H       
  60 H60            3.3035   -12.3455    -2.3436 H       
  61 H61            4.9241   -11.7938    -2.8808 H       
  62 H62            3.3160   -10.8814    -0.4286 H       
  63 H63            5.0539   -11.3236    -0.5226 H       
  64 H64            5.6223    -9.3185    -1.7217 H       
  65 H65            4.3598    -8.7095    -0.6081 H       
@<TRIPOS>BOND
   1    1    2 1
   2    1    3 2
   3    2    5 2
   4    2   36 1
   5    3    4 1
   6    3    6 1
   7    4    5 1
   8    5   18 1
   9    6    7 ar
  10    6    8 ar
  11    7   11 ar
  12    7   37 1
  13    8    9 ar
  14    8   38 1
  15    9   10 ar
  16    9   39 1
  17   10   11 ar
  18   10   12 1
  19   11   16 1
  20   12   13 1
  21   13   14 1
  22   13   15 1
  23   13   40 1
  24   14   41 1
  25   14   42 1
  26   14   43 1
  27   15   44 1
  28   15   45 1
  29   15   46 1
  30   16   17 3
  31   18   19 ar
  32   18   23 ar
  33   19   20 ar
  34   19   24 1
  35   20   21 ar
  36   20   26 1
  37   21   22 ar
  38   21   47 1
  39   22   23 ar
  40   22   48 1
  41   23   49 1
  42   24   25 1
  43   24   50 1
  44   24   51 1
  45   25   26 1
  46   25   52 1
  47   25   53 1
  48   26   27 1
  49   26   54 1
  50   27   28 1
  51   27   55 1
  52   28   29 1
  53   28   56 1
  54   28   57 1
  55   29   30 am
  56   29   31 2
  57   30   32 1
  58   30   35 1
  59   32   33 1
  60   32   58 1
  61   32   59 1
  62   33   34 1
  63   33   60 1
  64   33   61 1
  65   34   35 1
  66   34   62 1
  67   34   63 1
  68   35   64 1
  69   35   65 1

#	End of record

