#	Name: ASD06610093
#	Creating user name:	WinNT
#	Creation time:	15. 06. 2019 21:07

#	Modifying user name:	WinNT
#	Modification time:	15. 06. 2019 21:07

#	Program:	/corina/corina34_cracker 3.40 0067  02.08.2006

@<TRIPOS>MOLECULE
ASD06610093
 363  364    0    0    0
SMALL
NO_CHARGES


@<TRIPOS>ATOM
   1 C1            -3.3327    -2.0876     0.4079 C.2     
   2 O2            -3.3124    -3.2818     0.6184 O.2     
   3 N3            -0.9175    -2.2738     0.2619 N.am    
   4 C4            -2.0439    -1.3407     0.1797 C.3     
   5 C5            -2.0687    -0.6920    -1.2058 C.3     
   6 C6            -0.8353     0.1549    -1.3861 C.2     
   7 C7             0.0545     0.0531    -2.3918 C.2     
   8 N8             1.0123     1.0057    -2.1712 N.pl3   
   9 C9             0.6742     1.6571    -1.0376 C.2     
  10 N10           -0.4346     1.1462    -0.5763 N.2     
  11 C11           -6.8932    -1.4156    -0.0762 C.2     
  12 O12           -6.6743    -0.3818    -0.6714 O.2     
  13 N13           -4.5083    -1.4295     0.3725 N.am    
  14 C14           -5.7616    -2.1567     0.5883 C.3     
  15 C15           -6.0357    -2.2662     2.0895 C.3     
  16 C16           -4.9680    -3.1117     2.7347 C.ar    
  17 C17           -3.8182    -2.5195     3.2226 C.ar    
  18 C18           -2.8388    -3.2950     3.8144 C.ar    
  19 C19           -3.0095    -4.6629     3.9186 C.ar    
  20 C20           -4.1597    -5.2550     3.4315 C.ar    
  21 C21           -5.1410    -4.4789     2.8436 C.ar    
  22 C22          -10.5455    -1.5254     0.0309 C.2     
  23 O23          -10.5506    -2.2965     0.9670 O.2     
  24 N24           -8.1485    -1.9017    -0.0089 N.am    
  25 C25           -9.2485    -1.1813    -0.6549 C.3     
  26 C26           -9.3276    -1.5859    -2.1282 C.3     
  27 C27           -8.0612    -1.1247    -2.8525 C.3     
  28 C28           -8.1403    -1.5294    -4.3259 C.3     
  29 N29           -6.9277    -1.0878    -5.0193 N.pl3   
  30 C30           -6.7724    -1.3415    -6.3616 C.2     
  31 N31           -7.7041    -1.9749    -7.0172 N.2     
  32 N32           -5.6345    -0.9271    -7.0124 N.pl3   
  33 C33          -14.1053    -1.1092    -0.6889 C.2     
  34 O34          -13.8889    -0.7240    -1.8184 O.2     
  35 N35          -11.6999    -0.9763    -0.3961 N.am    
  36 C36          -12.9608    -1.3108     0.2706 C.3     
  37 C37          -13.1503    -0.4038     1.4881 C.3     
  38 C38          -12.0576    -0.6976     2.5180 C.3     
  39 C39          -12.2470     0.2094     3.7355 C.3     
  40 C40          -11.1543    -0.0845     4.7653 C.3     
  41 N41          -11.3362     0.7864     5.9343 N.3     
  42 C42          -17.7468    -0.8975    -0.4493 C.2     
  43 O43          -17.7216    -0.8755     0.7630 O.2     
  44 N44          -15.3692    -1.3570    -0.2919 N.am    
  45 C45          -16.4817    -1.1610    -1.2247 C.3     
  46 C46          -16.6592    -2.4183    -2.0781 C.3     
  47 C47          -15.4232    -2.6161    -2.9581 C.3     
  48 C48          -15.5980    -3.8545    -3.7988 C.2     
  49 O49          -16.6075    -4.5116    -3.7038 O.2     
  50 O50          -14.6322    -4.2277    -4.6530 O.3     
  51 C51          -21.3275    -0.8283    -1.1818 C.2     
  52 O52          -21.1654    -1.2816    -2.2950 O.2     
  53 N53          -18.9062    -0.6862    -1.1032 N.am    
  54 C54          -20.1361    -0.4300    -0.3495 C.3     
  55 C55          -20.2257     1.0593    -0.0106 C.3     
  56 C56          -19.0846     1.4364     0.9364 C.3     
  57 C57          -19.1742     2.9257     1.2753 C.3     
  58 N58          -18.0817     3.2867     2.1820 N.pl3   
  59 C59          -17.9569     4.5817     2.6267 C.2     
  60 N60          -16.9848     4.9029     3.4334 N.2     
  61 N61          -18.8574     5.5378     2.2204 N.pl3   
  62 C62          -24.8400     0.0067    -1.2170 C.2     
  63 O63          -24.6825     0.8410    -0.3510 O.2     
  64 N64          -22.5733    -0.6809    -0.6892 N.am    
  65 C65          -23.7344    -0.9665    -1.5358 C.3     
  66 C66          -24.2192    -2.3934    -1.2720 C.3     
  67 C67          -24.4566    -2.5824     0.2276 C.3     
  68 C68          -25.6461    -1.7266     0.6675 C.3     
  69 C69          -23.1600    -3.3885    -1.7501 C.3     
  70 C70          -28.4160     0.2097    -1.9479 C.2     
  71 O71          -28.4196    -0.8666    -2.5070 O.2     
  72 N72          -26.0037    -0.0500    -1.8945 N.am    
  73 C73          -27.1117     0.8333    -1.5224 C.3     
  74 C74          -26.9418     2.1853    -2.2182 C.3     
  75 C75          -25.6809     2.8744    -1.6928 C.3     
  76 C76          -25.5136     4.2061    -2.3782 C.2     
  77 O77          -26.3201     4.5670    -3.2022 O.2     
  78 O78          -24.4685     4.9913    -2.0731 O.3     
  79 C79          -31.9860     1.1504    -1.7382 C.2     
  80 O80          -31.7613     2.2009    -1.1754 O.2     
  81 N81          -29.5783     0.8480    -1.7073 N.am    
  82 C82          -30.8462     0.2418    -2.1210 C.3     
  83 C83          -35.6221     0.8661    -1.4915 C.2     
  84 O84          -35.5965    -0.3329    -1.6719 O.2     
  85 N85          -33.2550     0.7956    -2.0215 N.am    
  86 C86          -34.3629     1.6789    -1.6494 C.3     
  87 C87          -34.5675     2.7289    -2.7433 C.3     
  88 C88          -33.3361     3.6338    -2.8183 C.3     
  89 C89          -33.4865     4.6034    -3.9924 C.3     
  90 C90          -33.2054     4.4262    -1.5161 C.3     
  91 C91          -39.2004     1.5643    -1.2250 C.2     
  92 O92          -39.0480     2.7379    -1.4902 O.2     
  93 N93          -36.7766     1.4717    -1.1497 N.am    
  94 C94          -38.0007     0.6816    -0.9962 C.3     
  95 C95          -38.0580     0.0995     0.4176 C.3     
  96 C96          -36.9091    -0.8929     0.6076 C.3     
  97 C97          -36.9665    -1.4750     2.0213 C.3     
  98 N98          -35.8664    -2.4253     2.2032 N.pl3   
  99 C99          -35.7136    -3.0785     3.4032 C.2     
 100 N100         -34.7349    -3.9240     3.5650 N.2     
 101 N101         -36.5932    -2.8400     4.4326 N.pl3   
 102 C102         -42.8008     1.3327    -0.6362 C.2     
 103 O103         -42.6871     0.3069     0.0009 O.2     
 104 N104         -40.4428     1.0496    -1.1349 N.am    
 105 C105         -41.6091     1.9078    -1.3574 C.3     
 106 C106         -41.9078     1.9840    -2.8560 C.3     
 107 C107         -40.7496     2.6815    -3.5721 C.3     
 108 C108         -41.0483     2.7576    -5.0707 C.3     
 109 C109         -39.8901     3.4552    -5.7868 C.3     
 110 N110         -40.1769     3.5283    -7.2257 N.3     
 111 C111         -46.4176     1.8621    -0.6715 C.2     
 112 O112         -46.3582     2.5876    -1.6415 O.2     
 113 N113         -43.9930     1.9582    -0.6992 N.am    
 114 C114         -45.1515     1.3991     0.0019 C.3     
 115 C115         -45.1448     1.8731     1.4566 C.3     
 116 C116         -43.9216     1.2992     2.1744 C.3     
 117 C117         -43.9149     1.7732     3.6291 C.3     
 118 N118         -42.7437     1.2236     4.3164 N.pl3   
 119 C119         -42.5252     1.5149     5.6422 C.2     
 120 N120         -43.3601     2.2800     6.2875 N.2     
 121 N121         -41.4260     0.9992     6.2872 N.pl3   
 122 C122         -49.9816     1.8943     0.1411 C.2     
 123 O123         -49.7817     1.5354     1.2823 O.2     
 124 N124         -47.6161     1.4699    -0.1958 N.am    
 125 C125         -48.8470     1.9199    -0.8504 C.3     
 126 C126         -49.1716     0.9897    -2.0210 C.3     
 127 C127         -48.0796     1.1099    -3.0859 C.3     
 128 C128         -48.4041     0.1797    -4.2564 C.3     
 129 N129         -47.3585     0.2948    -5.2761 N.pl3   
 130 C130         -47.4362    -0.4520    -6.4277 C.2     
 131 N131         -46.5059    -0.3497    -7.3349 N.2     
 132 N132         -48.4952    -1.3069    -6.6225 N.pl3   
 133 C133         -53.6283     2.0977    -0.0120 C.2     
 134 O134         -53.6374     2.0209    -1.2224 O.2     
 135 N135         -51.2184     2.2702    -0.2402 N.am    
 136 C136         -52.3214     2.2452     0.7237 C.3     
 137 C137         -52.3303     3.5502     1.5224 C.3     
 138 C138         -51.0572     3.6403     2.3663 C.3     
 139 C139         -51.0661     4.9452     3.1650 C.3     
 140 N140         -49.8471     5.0315     3.9730 N.pl3   
 141 C141         -49.6328     6.1243     4.7793 C.2     
 142 N142         -48.5482     6.2011     5.4982 N.2     
 143 N143         -50.5623     7.1361     4.8272 N.pl3   
 144 C144         -56.5412     3.2648    -0.4818 C.2     
 145 O145         -55.8915     4.2507    -0.2254 O.2     
 146 N146         -54.7868     2.0511     0.6750 N.am    
 147 C147         -56.0573     1.9076    -0.0403 C.3     
 148 C148         -57.0957     1.2727     0.8868 C.3     
 149 C149         -56.6083    -0.1087     1.3283 C.3     
 150 C150         -57.5605    -0.6717     2.3853 C.3     
 151 C151         -56.5743    -1.0475     0.1206 C.3     
 152 O152         -57.6940     3.3784    -1.1600 O.3     
 153 C153           0.3085    -1.8227     0.5932 C.2     
 154 O154           0.4794    -0.6443     0.8233 O.2     
 155 C155          18.5707    -4.2626     4.0181 C.3     
 156 C156          17.3943    -3.2880     3.9323 C.3     
 157 C157          16.1273    -4.0512     3.5409 C.3     
 158 C158          14.9510    -3.0766     3.4551 C.3     
 159 C159          13.6840    -3.8398     3.0637 C.3     
 160 C160          12.5076    -2.8652     2.9779 C.3     
 161 C161          11.2406    -3.6283     2.5865 C.3     
 162 C162          10.0643    -2.6538     2.5007 C.3     
 163 C163           8.7973    -3.4169     2.1093 C.3     
 164 C164           7.6209    -2.4423     2.0235 C.3     
 165 C165           6.3539    -3.2055     1.6321 C.3     
 166 C166           5.1776    -2.2309     1.5463 C.3     
 167 C167           3.9106    -2.9941     1.1549 C.3     
 168 C168           2.7342    -2.0195     1.0691 C.3     
 169 C169           1.4672    -2.7826     0.6777 C.3     
 170 H170          -1.0541    -3.2164     0.0778 H       
 171 H171          -1.9320    -0.5682     0.9405 H       
 172 H172          -2.0911    -1.4687    -1.9702 H       
 173 H173          -2.9561    -0.0658    -1.2979 H       
 174 H174           0.0193    -0.6462    -3.2142 H       
 175 H175           1.7889     1.1804    -2.7256 H       
 176 H176           1.2275     2.4690    -0.5892 H       
 177 H177          -4.5246    -0.4743     0.2041 H       
 178 H178          -5.6805    -3.1557     0.1599 H       
 179 H179          -6.0287    -1.2709     2.5337 H       
 180 H180          -7.0102    -2.7281     2.2482 H       
 181 H181          -3.6849    -1.4508     3.1412 H       
 182 H182          -1.9402    -2.8324     4.1949 H       
 183 H183          -2.2440    -5.2689     4.3803 H       
 184 H184          -4.2928    -6.3237     3.5126 H       
 185 H185          -6.0412    -4.9411     2.4664 H       
 186 H186          -8.3236    -2.7285     0.4671 H       
 187 H187          -9.0724    -0.1081    -0.5818 H       
 188 H188          -9.4146    -2.6699    -2.2032 H       
 189 H189         -10.1990    -1.1189    -2.5870 H       
 190 H190          -7.9741    -0.0408    -2.7776 H       
 191 H191          -7.1897    -1.5918    -2.3937 H       
 192 H192          -8.2273    -2.6134    -4.4008 H       
 193 H193          -9.0117    -1.0623    -4.7847 H       
 194 H194          -6.2344    -0.6164    -4.5315 H       
 195 H195          -7.5945    -2.1539    -7.9642 H       
 196 H196          -4.9412    -0.4557    -6.5245 H       
 197 H197          -5.5250    -1.1061    -7.9594 H       
 198 H198         -11.6959    -0.3595    -1.1447 H       
 199 H199         -12.9362    -2.3517     0.5932 H       
 200 H200         -13.0861     0.6391     1.1778 H       
 201 H201         -14.1279    -0.5912     1.9322 H       
 202 H202         -12.1218    -1.7405     2.8283 H       
 203 H203         -11.0799    -0.5102     2.0739 H       
 204 H204         -12.1828     1.2523     3.4251 H       
 205 H205         -13.2247     0.0219     4.1795 H       
 206 H206         -11.2185    -1.1274     5.0756 H       
 207 H207         -10.1767     0.1030     4.3212 H       
 208 H208         -10.6262     0.6114     6.6295 H       
 209 H209         -11.3453     1.7583     5.6633 H       
 210 H210         -15.5422    -1.6650     0.6115 H       
 211 H211         -16.2680    -0.3100    -1.8714 H       
 212 H212         -16.7845    -3.2841    -1.4279 H       
 213 H213         -17.5407    -2.3075    -2.7095 H       
 214 H214         -15.2979    -1.7503    -3.6083 H       
 215 H215         -14.5417    -2.7270    -2.3267 H       
 216 H216         -14.7897    -5.0290    -5.1708 H       
 217 H217         -18.9264    -0.7037    -2.0728 H       
 218 H218         -20.1255    -1.0123     0.5719 H       
 219 H219         -20.1469     1.6456    -0.9260 H       
 220 H220         -21.1812     1.2653     0.4717 H       
 221 H221         -19.1634     0.8500     1.8519 H       
 222 H222         -18.1291     1.2304     0.4541 H       
 223 H223         -19.0954     3.5120     0.3598 H       
 224 H224         -20.1298     3.1317     1.7576 H       
 225 H225         -17.4463     2.6122     2.4687 H       
 226 H226         -16.8968     5.8166     3.7471 H       
 227 H227         -19.5808     5.2987     1.6201 H       
 228 H228         -18.7694     6.4514     2.5341 H       
 229 H229         -22.7012    -0.3857     0.2259 H       
 230 H230         -23.4531    -0.8662    -2.5841 H       
 231 H231         -25.1502    -2.5664    -1.8118 H       
 232 H232         -24.6685    -3.6318     0.4325 H       
 233 H233         -23.5664    -2.2774     0.7777 H       
 234 H234         -26.4513    -1.8218    -0.0609 H       
 235 H235         -25.9964    -2.0651     1.6426 H       
 236 H236         -25.3380    -0.6832     0.7343 H       
 237 H237         -22.2636    -3.2870    -1.1382 H       
 238 H238         -23.5480    -4.4032    -1.6606 H       
 239 H239         -22.9136    -3.1844    -2.7921 H       
 240 H240         -26.1077    -0.6757    -2.6284 H       
 241 H241         -27.1137     0.9783    -0.4421 H       
 242 H242         -26.8507     2.0316    -3.2935 H       
 243 H243         -27.8103     2.8112    -2.0129 H       
 244 H244         -25.7720     3.0280    -0.6176 H       
 245 H245         -24.8124     2.2485    -1.8981 H       
 246 H246         -24.4036     5.8362    -2.5388 H       
 247 H247         -29.5754     1.7088    -1.2602 H       
 248 H248         -30.9672    -0.7214    -1.6253 H       
 249 H249         -30.8442     0.0968    -3.2013 H       
 250 H250         -33.4347    -0.0446    -2.4717 H       
 251 H251         -34.1308     2.1760    -0.7075 H       
 252 H252         -34.7117     2.2312    -3.7023 H       
 253 H253         -35.4464     3.3300    -2.5102 H       
 254 H254         -32.4448     3.0233    -2.9632 H       
 255 H255         -34.3777     5.2139    -3.8475 H       
 256 H256         -32.6092     5.2481    -4.0458 H       
 257 H257         -33.5796     4.0389    -4.9201 H       
 258 H258         -33.0982     3.7355    -0.6797 H       
 259 H259         -32.3281     5.0709    -1.5695 H       
 260 H260         -34.0966     5.0368    -1.3712 H       
 261 H261         -36.7971     2.4307    -1.0054 H       
 262 H262         -38.0028    -0.1302    -1.7236 H       
 263 H263         -37.9664     0.9051     1.1462 H       
 264 H264         -39.0089    -0.4137     0.5610 H       
 265 H265         -37.0007    -1.6985    -0.1210 H       
 266 H266         -35.9583    -0.3797     0.4642 H       
 267 H267         -36.8749    -0.6694     2.7499 H       
 268 H268         -37.9173    -1.9882     2.1647 H       
 269 H269         -35.2458    -2.5935     1.4769 H       
 270 H270         -34.6271    -4.3849     4.4117 H       
 271 H271         -37.3216    -2.2108     4.3122 H       
 272 H272         -36.4854    -3.3009     5.2792 H       
 273 H273         -40.5647     0.1110    -0.9228 H       
 274 H274         -41.4021     2.9080    -0.9769 H       
 275 H275         -42.0273     0.9764    -3.2543 H       
 276 H276         -42.8264     2.5488    -3.0151 H       
 277 H277         -40.6301     3.6890    -3.1738 H       
 278 H278         -39.8311     2.1166    -3.4130 H       
 279 H279         -41.1678     1.7501    -5.4691 H       
 280 H280         -41.9668     3.3225    -5.2299 H       
 281 H281         -39.7706     4.4627    -5.3885 H       
 282 H282         -38.9715     2.8903    -5.6277 H       
 283 H283         -39.4261     3.9852    -7.7213 H       
 284 H284         -40.3555     2.6109    -7.6059 H       
 285 H285         -44.0839     2.7786    -1.2087 H       
 286 H286         -45.1023     0.3105    -0.0258 H       
 287 H287         -45.1043     2.9620     1.4838 H       
 288 H288         -46.0520     1.5307     1.9545 H       
 289 H289         -43.9621     0.2102     2.1473 H       
 290 H290         -43.0144     1.6415     1.6766 H       
 291 H291         -43.8744     2.8621     3.6563 H       
 292 H292         -44.8222     1.4308     4.1270 H       
 293 H293         -42.1224     0.6542     3.8362 H       
 294 H294         -43.2059     2.4855     7.2229 H       
 295 H295         -40.8047     0.4298     5.8069 H       
 296 H296         -41.2718     1.2047     7.2225 H       
 297 H297         -47.6637     0.8896     0.5801 H       
 298 H298         -48.7110     2.9360    -1.2207 H       
 299 H299         -49.2200    -0.0393    -1.6648 H       
 300 H300         -50.1323     1.2704    -2.4525 H       
 301 H301         -48.0311     2.1389    -3.4421 H       
 302 H302         -47.1188     0.8292    -2.6543 H       
 303 H303         -48.4526    -0.8493    -3.9002 H       
 304 H304         -49.3649     0.4604    -4.6880 H       
 305 H305         -46.6113     0.8979    -5.1386 H       
 306 H306         -46.5607    -0.8766    -8.1475 H       
 307 H307         -49.1875    -1.3831    -5.9474 H       
 308 H308         -48.5500    -1.8338    -7.4351 H       
 309 H309         -51.3783     2.5572    -1.1528 H       
 310 H310         -52.1904     1.4037     1.4040 H       
 311 H311         -52.3719     4.3960     0.8361 H       
 312 H312         -53.2019     3.5698     2.1766 H       
 313 H313         -51.0156     2.7945     3.0526 H       
 314 H314         -50.1855     3.6206     1.7122 H       
 315 H315         -51.1077     5.7910     2.4787 H       
 316 H316         -51.9378     4.9649     3.8192 H       
 317 H317         -49.1913     4.3176     3.9392 H       
 318 H318         -48.3970     6.9721     6.0670 H       
 319 H319         -51.3694     7.0790     4.2922 H       
 320 H320         -50.4111     7.9071     5.3960 H       
 321 H321         -54.7795     2.1124     1.6430 H       
 322 H322         -55.9128     1.2716    -0.9136 H       
 323 H323         -57.2357     1.9057     1.7631 H       
 324 H324         -58.0426     1.1716     0.3566 H       
 325 H325         -55.6069    -0.0230     1.7502 H       
 326 H326         -58.5773    -0.6765     1.9926 H       
 327 H327         -57.2633    -1.6899     2.6366 H       
 328 H328         -57.5193    -0.0500     3.2796 H       
 329 H329         -55.8959    -0.6464    -0.6324 H       
 330 H330         -56.2271    -2.0317     0.4352 H       
 331 H331         -57.5757    -1.1332    -0.3012 H       
 332 H332         -57.9632     4.2694    -1.4220 H       
 333 H333          18.7186    -4.7398     3.0494 H       
 334 H334          19.4733    -3.7189     4.2970 H       
 335 H335          18.3581    -5.0234     4.7692 H       
 336 H336          17.2464    -2.8109     4.9011 H       
 337 H337          17.6069    -2.5273     3.1812 H       
 338 H338          16.2752    -4.5284     2.5722 H       
 339 H339          15.9148    -4.8120     4.2920 H       
 340 H340          14.8031    -2.5994     4.4239 H       
 341 H341          15.1635    -2.3158     2.7040 H       
 342 H342          13.8319    -4.3169     2.0950 H       
 343 H343          13.4714    -4.6005     3.8148 H       
 344 H344          12.3597    -2.3880     3.9467 H       
 345 H345          12.7202    -2.1044     2.2268 H       
 346 H346          11.3885    -4.1055     1.6178 H       
 347 H347          11.0281    -4.3891     3.3376 H       
 348 H348           9.9164    -2.1766     3.4695 H       
 349 H349          10.2768    -1.8930     1.7496 H       
 350 H350           8.9452    -3.8941     1.1406 H       
 351 H351           8.5847    -4.1777     2.8604 H       
 352 H352           7.4730    -1.9652     2.9923 H       
 353 H353           7.8334    -1.6816     1.2724 H       
 354 H354           6.5018    -3.6827     0.6634 H       
 355 H355           6.1414    -3.9663     2.3832 H       
 356 H356           5.0297    -1.7537     2.5151 H       
 357 H357           5.3901    -1.4701     0.7952 H       
 358 H358           4.0585    -3.4712     0.1862 H       
 359 H359           3.6980    -3.7548     1.9060 H       
 360 H360           2.5863    -1.5423     2.0379 H       
 361 H361           2.9467    -1.2587     0.3180 H       
 362 H362           1.2547    -3.5434     1.4288 H       
 363 H363           1.6151    -3.2598    -0.2910 H       
@<TRIPOS>BOND
   1    1    2 2
   2    1    4 1
   3    1   13 am
   4    3  153 am
   5    3    4 1
   6    3  170 1
   7    4    5 1
   8    4  171 1
   9    5    6 1
  10    5  172 1
  11    5  173 1
  12    6    7 2
  13    6   10 1
  14    7    8 1
  15    7  174 1
  16    8    9 1
  17    8  175 1
  18    9   10 2
  19    9  176 1
  20   11   12 2
  21   11   14 1
  22   11   24 am
  23   13   14 1
  24   13  177 1
  25   14   15 1
  26   14  178 1
  27   15   16 1
  28   15  179 1
  29   15  180 1
  30   16   17 ar
  31   16   21 ar
  32   17   18 ar
  33   17  181 1
  34   18   19 ar
  35   18  182 1
  36   19   20 ar
  37   19  183 1
  38   20   21 ar
  39   20  184 1
  40   21  185 1
  41   22   23 2
  42   22   25 1
  43   22   35 am
  44   24   25 1
  45   24  186 1
  46   25   26 1
  47   25  187 1
  48   26   27 1
  49   26  188 1
  50   26  189 1
  51   27   28 1
  52   27  190 1
  53   27  191 1
  54   28   29 1
  55   28  192 1
  56   28  193 1
  57   29   30 1
  58   29  194 1
  59   30   31 2
  60   30   32 1
  61   31  195 1
  62   32  196 1
  63   32  197 1
  64   33   34 2
  65   33   36 1
  66   33   44 am
  67   35   36 1
  68   35  198 1
  69   36   37 1
  70   36  199 1
  71   37   38 1
  72   37  200 1
  73   37  201 1
  74   38   39 1
  75   38  202 1
  76   38  203 1
  77   39   40 1
  78   39  204 1
  79   39  205 1
  80   40   41 1
  81   40  206 1
  82   40  207 1
  83   41  208 1
  84   41  209 1
  85   42   43 2
  86   42   45 1
  87   42   53 am
  88   44   45 1
  89   44  210 1
  90   45   46 1
  91   45  211 1
  92   46   47 1
  93   46  212 1
  94   46  213 1
  95   47   48 1
  96   47  214 1
  97   47  215 1
  98   48   49 2
  99   48   50 1
 100   50  216 1
 101   51   52 2
 102   51   54 1
 103   51   64 am
 104   53   54 1
 105   53  217 1
 106   54   55 1
 107   54  218 1
 108   55   56 1
 109   55  219 1
 110   55  220 1
 111   56   57 1
 112   56  221 1
 113   56  222 1
 114   57   58 1
 115   57  223 1
 116   57  224 1
 117   58   59 1
 118   58  225 1
 119   59   60 2
 120   59   61 1
 121   60  226 1
 122   61  227 1
 123   61  228 1
 124   62   63 2
 125   62   65 1
 126   62   72 am
 127   64   65 1
 128   64  229 1
 129   65   66 1
 130   65  230 1
 131   66   67 1
 132   66   69 1
 133   66  231 1
 134   67   68 1
 135   67  232 1
 136   67  233 1
 137   68  234 1
 138   68  235 1
 139   68  236 1
 140   69  237 1
 141   69  238 1
 142   69  239 1
 143   70   71 2
 144   70   73 1
 145   70   81 am
 146   72   73 1
 147   72  240 1
 148   73   74 1
 149   73  241 1
 150   74   75 1
 151   74  242 1
 152   74  243 1
 153   75   76 1
 154   75  244 1
 155   75  245 1
 156   76   77 2
 157   76   78 1
 158   78  246 1
 159   79   80 2
 160   79   82 1
 161   79   85 am
 162   81   82 1
 163   81  247 1
 164   82  248 1
 165   82  249 1
 166   83   84 2
 167   83   86 1
 168   83   93 am
 169   85   86 1
 170   85  250 1
 171   86   87 1
 172   86  251 1
 173   87   88 1
 174   87  252 1
 175   87  253 1
 176   88   89 1
 177   88   90 1
 178   88  254 1
 179   89  255 1
 180   89  256 1
 181   89  257 1
 182   90  258 1
 183   90  259 1
 184   90  260 1
 185   91   92 2
 186   91   94 1
 187   91  104 am
 188   93   94 1
 189   93  261 1
 190   94   95 1
 191   94  262 1
 192   95   96 1
 193   95  263 1
 194   95  264 1
 195   96   97 1
 196   96  265 1
 197   96  266 1
 198   97   98 1
 199   97  267 1
 200   97  268 1
 201   98   99 1
 202   98  269 1
 203   99  100 2
 204   99  101 1
 205  100  270 1
 206  101  271 1
 207  101  272 1
 208  102  103 2
 209  102  105 1
 210  102  113 am
 211  104  105 1
 212  104  273 1
 213  105  106 1
 214  105  274 1
 215  106  107 1
 216  106  275 1
 217  106  276 1
 218  107  108 1
 219  107  277 1
 220  107  278 1
 221  108  109 1
 222  108  279 1
 223  108  280 1
 224  109  110 1
 225  109  281 1
 226  109  282 1
 227  110  283 1
 228  110  284 1
 229  111  112 2
 230  111  114 1
 231  111  124 am
 232  113  114 1
 233  113  285 1
 234  114  115 1
 235  114  286 1
 236  115  116 1
 237  115  287 1
 238  115  288 1
 239  116  117 1
 240  116  289 1
 241  116  290 1
 242  117  118 1
 243  117  291 1
 244  117  292 1
 245  118  119 1
 246  118  293 1
 247  119  120 2
 248  119  121 1
 249  120  294 1
 250  121  295 1
 251  121  296 1
 252  122  123 2
 253  122  125 1
 254  122  135 am
 255  124  125 1
 256  124  297 1
 257  125  126 1
 258  125  298 1
 259  126  127 1
 260  126  299 1
 261  126  300 1
 262  127  128 1
 263  127  301 1
 264  127  302 1
 265  128  129 1
 266  128  303 1
 267  128  304 1
 268  129  130 1
 269  129  305 1
 270  130  131 2
 271  130  132 1
 272  131  306 1
 273  132  307 1
 274  132  308 1
 275  133  134 2
 276  133  136 1
 277  133  146 am
 278  135  136 1
 279  135  309 1
 280  136  137 1
 281  136  310 1
 282  137  138 1
 283  137  311 1
 284  137  312 1
 285  138  139 1
 286  138  313 1
 287  138  314 1
 288  139  140 1
 289  139  315 1
 290  139  316 1
 291  140  141 1
 292  140  317 1
 293  141  142 2
 294  141  143 1
 295  142  318 1
 296  143  319 1
 297  143  320 1
 298  144  145 2
 299  144  147 1
 300  144  152 1
 301  146  147 1
 302  146  321 1
 303  147  148 1
 304  147  322 1
 305  148  149 1
 306  148  323 1
 307  148  324 1
 308  149  150 1
 309  149  151 1
 310  149  325 1
 311  150  326 1
 312  150  327 1
 313  150  328 1
 314  151  329 1
 315  151  330 1
 316  151  331 1
 317  152  332 1
 318  153  154 2
 319  153  169 1
 320  155  156 1
 321  155  333 1
 322  155  334 1
 323  155  335 1
 324  156  157 1
 325  156  336 1
 326  156  337 1
 327  157  158 1
 328  157  338 1
 329  157  339 1
 330  158  159 1
 331  158  340 1
 332  158  341 1
 333  159  160 1
 334  159  342 1
 335  159  343 1
 336  160  161 1
 337  160  344 1
 338  160  345 1
 339  161  162 1
 340  161  346 1
 341  161  347 1
 342  162  163 1
 343  162  348 1
 344  162  349 1
 345  163  164 1
 346  163  350 1
 347  163  351 1
 348  164  165 1
 349  164  352 1
 350  164  353 1
 351  165  166 1
 352  165  354 1
 353  165  355 1
 354  166  167 1
 355  166  356 1
 356  166  357 1
 357  167  168 1
 358  167  358 1
 359  167  359 1
 360  168  169 1
 361  168  360 1
 362  168  361 1
 363  169  362 1
 364  169  363 1

#	End of record

