#	Name: ASD01410866
#	Creating user name:	WinNT
#	Creation time:	15. 06. 2019 19:18

#	Modifying user name:	WinNT
#	Modification time:	15. 06. 2019 19:18

#	Program:	/corina/corina34_cracker 3.40 0067  02.08.2006

@<TRIPOS>MOLECULE
ASD01410866
  39   41    0    0    0
SMALL
NO_CHARGES


@<TRIPOS>ATOM
   1 N1            -0.0158     1.3173     0.0093 N.ar    
   2 C2             0.0021    -0.0041     0.0020 C.ar    
   3 C3             1.2096    -0.7206    -0.0129 C.ar    
   4 C4             2.3975    -0.0488    -0.0206 C.ar    
   5 C5             2.3690     1.3613    -0.0132 C.ar    
   6 C6             3.5556     2.1103    -0.0209 C.ar    
   7 C7             3.4992     3.4699    -0.0140 C.ar    
   8 C8             2.2696     4.1356     0.0012 C.ar    
   9 C9             1.0875     3.4309     0.0091 C.ar    
  10 C10            1.1166     2.0263     0.0023 C.ar    
  11 C11           -0.2304     4.1616     0.0260 C.3     
  12 O12            2.2416     5.4937     0.0087 O.3     
  13 C13            3.5012     6.1686     0.0003 C.3     
  14 S14           -1.4434    -2.4979     0.0030 S.3     
  15 C15           -1.2769    -0.7440     0.0102 C.2     
  16 N16           -2.4624    -0.2042     0.0248 N.2     
  17 C17           -3.4894    -1.0188     0.0309 C.2     
  18 C18           -3.1975    -2.3260     0.0213 C.2     
  19 C19           -4.9099    -0.5160     0.0480 C.3     
  20 C20           -5.4474    -0.4572    -1.3833 C.3     
  21 C21           -5.7764    -1.4637     0.8797 C.3     
  22 Cl22           3.9057    -0.9083    -0.0384 Cl      
  23 H23            1.1983    -1.8005    -0.0179 H       
  24 H24            4.5120     1.6087    -0.0320 H       
  25 H25            4.4153     4.0418    -0.0200 H       
  26 H26           -0.5583     4.3433    -0.9975 H       
  27 H27           -0.9746     3.5567     0.5440 H       
  28 H28           -0.1115     5.1134     0.5438 H       
  29 H29            3.3361     7.2460     0.0076 H       
  30 H30            4.0725     5.8826     0.8834 H       
  31 H31            4.0556     5.8920    -0.8965 H       
  32 H32           -3.9132    -3.1349     0.0241 H       
  33 H33           -4.9371     0.4811     0.4876 H       
  34 H34           -5.4202    -1.4543    -1.8228 H       
  35 H35           -6.4749    -0.0935    -1.3708 H       
  36 H36           -4.8301     0.2180    -1.9758 H       
  37 H37           -5.3935    -1.5056     1.8994 H       
  38 H38           -6.8039    -1.1000     0.8921 H       
  39 H39           -5.7493    -2.4608     0.4402 H       
@<TRIPOS>BOND
   1    1    2 ar
   2    1   10 ar
   3    2    3 ar
   4    2   15 1
   5    3    4 ar
   6    3   23 1
   7    4    5 ar
   8    4   22 1
   9    5    6 ar
  10    5   10 ar
  11    6    7 ar
  12    6   24 1
  13    7    8 ar
  14    7   25 1
  15    8    9 ar
  16    8   12 1
  17    9   10 ar
  18    9   11 1
  19   11   26 1
  20   11   27 1
  21   11   28 1
  22   12   13 1
  23   13   29 1
  24   13   30 1
  25   13   31 1
  26   14   15 1
  27   14   18 1
  28   15   16 2
  29   16   17 1
  30   17   18 2
  31   17   19 1
  32   18   32 1
  33   19   20 1
  34   19   21 1
  35   19   33 1
  36   20   34 1
  37   20   35 1
  38   20   36 1
  39   21   37 1
  40   21   38 1
  41   21   39 1

#	End of record

