#	Name: ASD01915819
#	Creating user name:	WinNT
#	Creation time:	15. 06. 2019 20:06

#	Modifying user name:	WinNT
#	Modification time:	15. 06. 2019 20:06

#	Program:	/corina/corina34_cracker 3.40 0067  02.08.2006

@<TRIPOS>MOLECULE
ASD01915819
  41   44    0    0    0
SMALL
NO_CHARGES


@<TRIPOS>ATOM
   1 C1            -0.0166     1.3727     0.0096 C.2     
   2 N2             0.0021    -0.0041     0.0020 N.pl3   
   3 C3            -1.2434    -0.7807    -0.0179 C.3     
   4 C4            -2.3411     0.0066     0.6955 C.3     
   5 N5            -2.4046     1.3987     0.2638 N.am    
   6 C6            -1.2815     2.1228     0.0393 C.2     
   7 C7             1.2843     1.7903    -0.0006 C.2     
   8 C8             2.0436     0.6124    -0.0023 C.2     
   9 N9             1.2133    -0.4043     0.0045 N.2     
  10 C10            3.5482     0.5278    -0.0111 C.3     
  11 O11            4.0994     1.8462    -0.0174 O.3     
  12 C12            5.4545     1.9484    -0.0257 C.ar    
  13 O13           -1.3173     3.3273    -0.1281 O.2     
  14 C14            6.0571     3.1980    -0.0322 C.ar    
  15 C15            6.2377     0.8032    -0.0220 C.ar    
  16 C16            7.6150     0.9098    -0.0304 C.ar    
  17 C17            8.2131     2.1563    -0.0427 C.ar    
  18 C18            7.4348     3.2991    -0.0407 C.ar    
  19 C19           -3.6611     2.0033     0.0757 C.2     
  20 C20           -4.9089     1.3914     0.2653 C.2     
  21 N21           -5.8423     2.2669    -0.0068 N.2     
  22 N22           -5.2257     3.4680    -0.3797 N.pl3   
  23 C23           -3.8814     3.2844    -0.3161 C.2     
  24 C24           -5.9098     4.7051    -0.7645 C.3     
  25 H25           -1.5404    -0.9655    -1.0502 H       
  26 H26           -1.0875    -1.7314     0.4920 H       
  27 H27           -3.3017    -0.4682     0.4956 H       
  28 H28           -2.1535    -0.0210     1.7689 H       
  29 H29            1.6483     2.8071    -0.0061 H       
  30 H30            3.8874    -0.0035     0.8781 H       
  31 H31            3.8768    -0.0077    -0.9018 H       
  32 H32            5.4496     4.0909    -0.0310 H       
  33 H33            5.7710    -0.1707    -0.0121 H       
  34 H34            8.2251     0.0186    -0.0272 H       
  35 H35            9.2900     2.2375    -0.0493 H       
  36 H36            7.9043     4.2717    -0.0506 H       
  37 H37           -5.0715     0.3716     0.5816 H       
  38 H38           -3.1252     4.0213    -0.5431 H       
  39 H39           -6.0796     5.3170     0.1214 H       
  40 H40           -5.2923     5.2561    -1.4738 H       
  41 H41           -6.8663     4.4624    -1.2274 H       
@<TRIPOS>BOND
   1    1    2 1
   2    1    7 2
   3    1    6 1
   4    2    3 1
   5    2    9 1
   6    3    4 1
   7    3   25 1
   8    3   26 1
   9    4    5 1
  10    4   27 1
  11    4   28 1
  12    5    6 am
  13    5   19 1
  14    6   13 2
  15    7    8 1
  16    7   29 1
  17    8    9 2
  18    8   10 1
  19   10   11 1
  20   10   30 1
  21   10   31 1
  22   11   12 1
  23   12   14 ar
  24   12   15 ar
  25   14   18 ar
  26   14   32 1
  27   15   16 ar
  28   15   33 1
  29   16   17 ar
  30   16   34 1
  31   17   18 ar
  32   17   35 1
  33   18   36 1
  34   19   20 1
  35   19   23 2
  36   20   21 2
  37   20   37 1
  38   21   22 1
  39   22   23 1
  40   22   24 1
  41   23   38 1
  42   24   39 1
  43   24   40 1
  44   24   41 1

#	End of record

