#	Name: ASD01028800
#	Creating user name:	WinNT
#	Creation time:	15. 06. 2019 18:58

#	Modifying user name:	WinNT
#	Modification time:	15. 06. 2019 18:58

#	Program:	/corina/corina34_cracker 3.40 0067  02.08.2006

@<TRIPOS>MOLECULE
ASD01028800
  23   24    0    0    0
SMALL
NO_CHARGES


@<TRIPOS>ATOM
   1 N1            -0.0164     1.3618     0.0095 N.pl3   
   2 N2             0.0021    -0.0041     0.0020 N.3     
   3 C3             1.1777     2.0731     0.0019 C.ar    
   4 C4             1.1595     3.4692     0.0096 C.ar    
   5 C5             2.3714     4.1346     0.0016 C.ar    
   6 C6             3.5426     3.3660    -0.0138 C.ar    
   7 N7             3.4614     2.0412    -0.0201 N.ar    
   8 N8             2.3346     1.4268    -0.0071 N.ar    
   9 S9             5.2081     5.7671    -0.0174 S.3     
  10 N10            6.8958     5.5907    -0.0346 N.2     
  11 C11            7.1572     4.3171    -0.0439 C.2     
  12 C12            6.1065     3.4331    -0.0385 C.2     
  13 C13            4.8644     4.0283    -0.0234 C.2     
  14 C14            8.5807     3.8225    -0.0608 C.3     
  15 H15           -0.8630     1.8353     0.0161 H       
  16 H16            0.5405    -0.3627     0.7764 H       
  17 H17           -0.9349    -0.3784     0.0090 H       
  18 H18            0.2266     4.0131     0.0211 H       
  19 H19            2.4139     5.2138     0.0066 H       
  20 H20            6.2425     2.3618    -0.0459 H       
  21 H21            8.9340     3.6974     0.9627 H       
  22 H22            8.6266     2.8655    -0.5806 H       
  23 H23            9.2109     4.5468    -0.5767 H       
@<TRIPOS>BOND
   1    1    2 1
   2    1    3 1
   3    1   15 1
   4    2   16 1
   5    2   17 1
   6    3    4 ar
   7    3    8 ar
   8    4    5 ar
   9    4   18 1
  10    5    6 ar
  11    5   19 1
  12    6    7 ar
  13    6   13 1
  14    7    8 ar
  15    9   10 1
  16    9   13 1
  17   10   11 2
  18   11   12 1
  19   11   14 1
  20   12   13 2
  21   12   20 1
  22   14   21 1
  23   14   22 1
  24   14   23 1

#	End of record

