#	Name: ASD05143109
#	Creating user name:	WinNT
#	Creation time:	15. 06. 2019 20:57

#	Modifying user name:	WinNT
#	Modification time:	15. 06. 2019 20:57

#	Program:	/corina/corina34_cracker 3.40 0067  02.08.2006

@<TRIPOS>MOLECULE
ASD05143109
 147  150    0    0    0
SMALL
NO_CHARGES


@<TRIPOS>ATOM
   1 C1            -2.1039     5.4045     7.5376 C.2     
   2 C2            -1.6183     4.6673     8.7589 C.3     
   3 N3            -1.2162     5.9398     6.6762 N.am    
   4 O4            -3.2935     5.5117     7.3271 O.2     
   5 C5            -1.6883     6.6564     5.4889 C.3     
   6 C6            -2.5220     5.7117     4.6209 C.3     
   7 C7            -2.5359     7.8280     5.9132 C.2     
   8 C8            -1.6303     4.5885     4.0878 C.3     
   9 C9            -2.4640     3.6438     3.2199 C.3     
  10 N10           -1.6101     2.5684     2.7094 N.pl3   
  11 C11           -2.1429     1.5930     1.9002 C.2     
  12 N12           -1.3416     0.5837     1.4211 N.pl3   
  13 N13           -3.4078     1.6251     1.5871 N.2     
  14 O14           -3.0284     7.8504     7.0213 O.2     
  15 N15           -2.7466     8.8509     5.0613 N.am    
  16 C16           -3.5705     9.9899     5.4738 C.3     
  17 C17           -2.6674    11.1812     5.7996 C.3     
  18 C18           -1.5112    10.7178     6.6877 C.3     
  19 C19           -0.3703    10.2472     5.8230 C.2     
  20 N20            0.8969    10.6599     6.1240 N.am    
  21 C21            1.9600    10.1475     5.2297 C.3     
  22 C22            2.1100    11.1066     4.0472 C.3     
  23 C23            2.7731    10.3748     2.8785 C.3     
  24 C24            3.7314    11.3254     2.1583 C.3     
  25 N25            3.6795    11.0466     0.7091 N.am    
  26 C26            5.1341    11.1077     2.6646 C.2     
  27 N27            5.5219    11.6575     3.8324 N.am    
  28 O28            5.9139    10.4378     2.0211 O.2     
  29 C29            2.8532    11.8339    -0.0324 C.2     
  30 O30            2.2095    12.7163     0.4948 O.2     
  31 C31            2.7487    11.5957    -1.5167 C.3     
  32 N32            1.5339    12.2779    -2.0191 N.am    
  33 C33            3.9843    12.1650    -2.2168 C.3     
  34 C34            0.4807    11.4581    -2.3110 C.2     
  35 O35            0.5723    10.2579    -2.1624 O.2     
  36 C36           -0.7971    12.0734    -2.8205 C.3     
  37 N37           -1.9239    11.1807    -2.4834 N.am    
  38 C38           -1.0083    13.4373    -2.1602 C.3     
  39 C39           -3.0284    11.7696    -1.9477 C.2     
  40 O40           -3.0577    12.9677    -1.7618 O.2     
  41 C41           -4.2140    10.9112    -1.5895 C.3     
  42 C42            3.9359    11.8178    -3.6825 C.2     
  43 C43            3.2374    12.5638    -4.7320 C.ar    
  44 C44            3.4750    11.8648    -5.9294 C.ar    
  45 N45            4.2602    10.7779    -5.6164 N.pl3   
  46 C46            4.5294    10.7695    -4.2748 C.2     
  47 C47            2.4606    13.7240    -4.7449 C.ar    
  48 C48            1.9346    14.1750    -5.9224 C.ar    
  49 C49            2.1658    13.4885    -7.1068 C.ar    
  50 C50            2.9298    12.3424    -7.1170 C.ar    
  51 N51           -4.7995    11.4140    -0.3258 N.am    
  52 C52           -3.7609     9.4616    -1.4042 C.3     
  53 C53           -4.9594     8.5930    -1.1211 C.ar    
  54 C54           -5.9885     8.5156    -2.0407 C.ar    
  55 C55           -7.0900     7.7179    -1.7827 C.ar    
  56 C56           -7.1607     6.9966    -0.6013 C.ar    
  57 C57           -6.1278     7.0755     0.3195 C.ar    
  58 C58           -5.0255     7.8703     0.0554 C.ar    
  59 C59           -4.5090    10.3625     4.3550 C.2     
  60 O60           -5.7073    10.2308     4.4877 O.2     
  61 C61           -1.0180    13.2715    -0.6392 C.3     
  62 C62           -1.3759    14.6064     0.0171 C.3     
  63 N63           -1.3852    14.4477     1.4734 N.pl3   
  64 C64           -1.6823    15.5207     2.2800 C.2     
  65 N65           -1.9706    16.7427     1.7199 N.pl3   
  66 N66           -1.6906    15.3794     3.5757 N.2     
  67 N67           -3.9923    10.8485     3.1931 N.am    
  68 C68           -4.9603    11.1966     2.1337 C.3     
  69 C69           -4.4059    10.7545     0.8040 C.2     
  70 O70           -3.6245     9.8292     0.7380 O.2     
  71 C71           -5.1819    12.7104     2.1190 C.3     
  72 C72           -5.8448    13.1415     3.4288 C.3     
  73 C73           -6.0631    14.6325     3.4143 C.2     
  74 F74           -8.2351     6.2179    -0.3474 F       
  75 O75           -0.5731     9.5153     4.8775 O.2     
  76 F76           -8.0958     7.6430    -2.6816 F       
  77 F77           -6.1945     6.3737     1.4720 F       
  78 O78           -5.7221    15.2860     2.4512 O.2     
  79 N79           -6.6374    15.2398     4.4717 N.am    
  80 H80           -1.0243     5.3403     9.3773 H       
  81 H81           -2.4739     4.3085     9.3309 H       
  82 H82           -1.0052     3.8199     8.4520 H       
  83 H83           -0.2647     5.8505     6.8424 H       
  84 H84           -0.8327     7.0152     4.9169 H       
  85 H85           -3.3267     5.2839     5.2189 H       
  86 H86           -2.9466     6.2666     3.7843 H       
  87 H87           -0.8256     5.0163     3.4898 H       
  88 H88           -1.2057     4.0336     4.9244 H       
  89 H89           -3.2686     3.2160     3.8179 H       
  90 H90           -2.8886     4.1987     2.3833 H       
  91 H91           -0.6688     2.5445     2.9424 H       
  92 H92           -0.4003     0.5598     1.6541 H       
  93 H93           -1.7175    -0.1045     0.8502 H       
  94 H94           -3.7837     0.9369     1.0161 H       
  95 H95           -2.3527     8.8330     4.1751 H       
  96 H96           -4.1480     9.7193     6.3578 H       
  97 H97           -2.2701    11.5994     4.8747 H       
  98 H98           -3.2454    11.9425     6.3235 H       
  99 H99           -1.1766    11.5472     7.3107 H       
 100 H100          -1.8471     9.8985     7.3234 H       
 101 H101           1.0869    11.2481     6.8716 H       
 102 H102           2.9015    10.0904     5.7760 H       
 103 H103           1.6855     9.1576     4.8651 H       
 104 H104           1.1264    11.4632     3.7415 H       
 105 H105           2.7282    11.9542     4.3429 H       
 106 H106           3.3285     9.5161     3.2558 H       
 107 H107           2.0072    10.0342     2.1816 H       
 108 H108           3.4304    12.3566     2.3429 H       
 109 H109           4.2067    10.3389     0.3066 H       
 110 H110           4.8983    12.1933     4.3470 H       
 111 H111           6.4248    11.5174     4.1582 H       
 112 H112           2.6746    10.5258    -1.7115 H       
 113 H113           1.4893    13.2401    -2.1332 H       
 114 H114           4.0009    13.2486    -2.1004 H       
 115 H115           4.8830    11.7379    -1.7718 H       
 116 H116          -0.7382    12.1945    -3.9022 H       
 117 H117          -1.8794    10.2238    -2.6355 H       
 118 H118          -0.1994    14.1091    -2.4472 H       
 119 H119          -1.9607    13.8553    -2.4862 H       
 120 H120          -4.9581    10.9654    -2.3842 H       
 121 H121           4.5783    10.1186    -6.2527 H       
 122 H122           5.1247    10.0254    -3.7666 H       
 123 H123           2.2760    14.2628    -3.8273 H       
 124 H124           1.3339    15.0724    -5.9319 H       
 125 H125           1.7429    13.8573    -8.0296 H       
 126 H126           3.1041    11.8157    -8.0436 H       
 127 H127          -5.4190    12.1600    -0.3018 H       
 128 H128          -3.2683     9.1159    -2.3130 H       
 129 H129          -3.0640     9.4028    -0.5682 H       
 130 H130          -5.9332     9.0781    -2.9610 H       
 131 H131          -4.2205     7.9321     0.7726 H       
 132 H132          -1.7567    12.5200    -0.3604 H       
 133 H133          -0.0314    12.9538    -0.3020 H       
 134 H134          -0.6373    15.3579    -0.2618 H       
 135 H135          -2.3626    14.9241    -0.3201 H       
 136 H136          -1.1818    13.5855     1.8686 H       
 137 H137          -1.9645    16.8478     0.7556 H       
 138 H138          -2.1802    17.4997     2.2889 H       
 139 H139          -1.9002    16.1365     4.1448 H       
 140 H140          -3.0370    10.9608     3.0676 H       
 141 H141          -5.9062    10.6888     2.3221 H       
 142 H142          -4.2226    13.2170     2.0134 H       
 143 H143          -5.8268    12.9750     1.2811 H       
 144 H144          -6.8041    12.6349     3.5345 H       
 145 H145          -5.1999    12.8769     4.2668 H       
 146 H146          -6.9101    14.7172     5.2419 H       
 147 H147          -6.7779    16.1996     4.4623 H       
@<TRIPOS>BOND
   1    1    2 1
   2    1    3 am
   3    1    4 2
   4    2   80 1
   5    2   81 1
   6    2   82 1
   7    3    5 1
   8    3   83 1
   9    5    6 1
  10    5    7 1
  11    5   84 1
  12    6    8 1
  13    6   85 1
  14    6   86 1
  15    7   14 2
  16    7   15 am
  17    8    9 1
  18    8   87 1
  19    8   88 1
  20    9   10 1
  21    9   89 1
  22    9   90 1
  23   10   11 1
  24   10   91 1
  25   11   12 1
  26   11   13 2
  27   12   92 1
  28   12   93 1
  29   13   94 1
  30   15   16 1
  31   15   95 1
  32   16   17 1
  33   16   59 1
  34   16   96 1
  35   17   18 1
  36   17   97 1
  37   17   98 1
  38   18   19 1
  39   18   99 1
  40   18  100 1
  41   19   20 am
  42   19   75 2
  43   20   21 1
  44   20  101 1
  45   21   22 1
  46   21  102 1
  47   21  103 1
  48   22   23 1
  49   22  104 1
  50   22  105 1
  51   23   24 1
  52   23  106 1
  53   23  107 1
  54   24   25 1
  55   24   26 1
  56   24  108 1
  57   25   29 am
  58   25  109 1
  59   26   27 am
  60   26   28 2
  61   27  110 1
  62   27  111 1
  63   29   30 2
  64   29   31 1
  65   31   32 1
  66   31   33 1
  67   31  112 1
  68   32   34 am
  69   32  113 1
  70   33   42 1
  71   33  114 1
  72   33  115 1
  73   34   35 2
  74   34   36 1
  75   36   37 1
  76   36   38 1
  77   36  116 1
  78   37   39 am
  79   37  117 1
  80   38   61 1
  81   38  118 1
  82   38  119 1
  83   39   40 2
  84   39   41 1
  85   41   51 1
  86   41   52 1
  87   41  120 1
  88   42   43 1
  89   42   46 2
  90   43   44 ar
  91   43   47 ar
  92   44   45 1
  93   44   50 ar
  94   45   46 1
  95   45  121 1
  96   46  122 1
  97   47   48 ar
  98   47  123 1
  99   48   49 ar
 100   48  124 1
 101   49   50 ar
 102   49  125 1
 103   50  126 1
 104   51   69 am
 105   51  127 1
 106   52   53 1
 107   52  128 1
 108   52  129 1
 109   53   54 ar
 110   53   58 ar
 111   54   55 ar
 112   54  130 1
 113   55   56 ar
 114   55   76 1
 115   56   57 ar
 116   56   74 1
 117   57   58 ar
 118   57   77 1
 119   58  131 1
 120   59   60 2
 121   59   67 am
 122   61   62 1
 123   61  132 1
 124   61  133 1
 125   62   63 1
 126   62  134 1
 127   62  135 1
 128   63   64 1
 129   63  136 1
 130   64   65 1
 131   64   66 2
 132   65  137 1
 133   65  138 1
 134   66  139 1
 135   67   68 1
 136   67  140 1
 137   68   69 1
 138   68   71 1
 139   68  141 1
 140   69   70 2
 141   71   72 1
 142   71  142 1
 143   71  143 1
 144   72   73 1
 145   72  144 1
 146   72  145 1
 147   73   78 2
 148   73   79 am
 149   79  146 1
 150   79  147 1

#	End of record

