#	Name: ASD07930944
#	Creating user name:	WinNT
#	Creation time:	15. 06. 2019 21:13

#	Modifying user name:	WinNT
#	Modification time:	15. 06. 2019 21:13

#	Program:	/corina/corina34_cracker 3.40 0067  02.08.2006

@<TRIPOS>MOLECULE
ASD07930944
  52   56    0    0    0
SMALL
NO_CHARGES


@<TRIPOS>ATOM
   1 C1            -0.1200     1.2915     0.5246 C.ar    
   2 N2            -0.0835    -0.1049     0.4213 N.am    
   3 N3            -0.1452    -0.9872     1.5029 N.2     
   4 C4            -0.0899    -2.2245     1.1012 C.2     
   5 C5             0.0188    -2.2043    -0.3754 C.2     
   6 C6             0.0105    -0.7905    -0.7384 C.2     
   7 O7             0.0821    -0.3221    -1.8629 O.2     
   8 C8            -0.1107    -3.5457     1.7575 C.ar    
   9 C9            -0.0269    -4.6917     0.9490 C.ar    
  10 N10            0.0727    -4.5750    -0.4266 N.pl3   
  11 C11            0.0933    -3.3915    -1.0605 C.2     
  12 C12           -0.2097    -3.6693     3.1394 C.ar    
  13 C13           -0.2254    -4.9236     3.7143 C.ar    
  14 C14           -0.1430    -6.0557     2.9198 C.ar    
  15 C15           -0.0449    -5.9462     1.5481 C.ar    
  16 C16            0.1585    -5.7987    -1.2276 C.3     
  17 C17           -1.2502    -6.3319    -1.4966 C.3     
  18 C18           -2.4934    -8.1728    -2.4649 C.3     
  19 C19           -3.3081    -7.2127    -3.3347 C.3     
  20 C20           -3.4296    -5.8635    -2.6210 C.3     
  21 C21           -2.0277    -5.3169    -2.3375 C.3     
  22 C22            1.0624     2.0177     0.5595 C.ar    
  23 C23            1.0232     3.3951     0.6610 C.ar    
  24 C24           -0.1917     4.0515     0.7279 C.ar    
  25 C25           -1.3728     3.3326     0.6935 C.ar    
  26 C26           -1.3415     1.9544     0.5868 C.ar    
  27 F27           -2.4951     1.2520     0.5531 F       
  28 N28           -1.1609    -7.6051    -2.2228 N.3     
  29 C29           -0.3038    -8.5601    -1.5078 C.3     
  30 H30            0.1727    -3.3731    -2.1374 H       
  31 H31           -0.2737    -2.7875     3.7597 H       
  32 H32           -0.3018    -5.0232     4.7870 H       
  33 H33           -0.1557    -7.0332     3.3787 H       
  34 H34            0.0188    -6.8359     0.9391 H       
  35 H35            0.6508    -5.5790    -2.1749 H       
  36 H36            0.7334    -6.5488    -0.6846 H       
  37 H37           -1.7658    -6.4895    -0.5493 H       
  38 H38           -3.0031    -8.3218    -1.5130 H       
  39 H39           -2.3929    -9.1300    -2.9766 H       
  40 H40           -2.8060    -7.0741    -4.2922 H       
  41 H41           -4.3024    -7.6272    -3.5012 H       
  42 H42           -3.9721    -5.1631    -3.2561 H       
  43 H43           -3.9661    -5.9954    -1.6814 H       
  44 H44           -2.1072    -4.3768    -1.7915 H       
  45 H45           -1.5055    -5.1484    -3.2793 H       
  46 H46            2.0123     1.5064     0.5077 H       
  47 H47            1.9433     3.9599     0.6885 H       
  48 H48           -0.2186     5.1282     0.8075 H       
  49 H49           -2.3202     3.8484     0.7463 H       
  50 H50           -0.6603    -8.6724    -0.4839 H       
  51 H51           -0.3366    -9.5259    -2.0120 H       
  52 H52            0.7216    -8.1905    -1.4970 H       
@<TRIPOS>BOND
   1    1    2 1
   2    1   22 ar
   3    1   26 ar
   4    2    3 1
   5    2    6 am
   6    3    4 2
   7    4    5 1
   8    4    8 1
   9    5    6 1
  10    5   11 2
  11    6    7 2
  12    8    9 ar
  13    8   12 ar
  14    9   10 1
  15    9   15 ar
  16   10   11 1
  17   10   16 1
  18   11   30 1
  19   12   13 ar
  20   12   31 1
  21   13   14 ar
  22   13   32 1
  23   14   15 ar
  24   14   33 1
  25   15   34 1
  26   16   17 1
  27   16   35 1
  28   16   36 1
  29   17   28 1
  30   17   21 1
  31   17   37 1
  32   18   19 1
  33   18   28 1
  34   18   38 1
  35   18   39 1
  36   19   20 1
  37   19   40 1
  38   19   41 1
  39   20   21 1
  40   20   42 1
  41   20   43 1
  42   21   44 1
  43   21   45 1
  44   22   23 ar
  45   22   46 1
  46   23   24 ar
  47   23   47 1
  48   24   25 ar
  49   24   48 1
  50   25   26 ar
  51   25   49 1
  52   26   27 1
  53   28   29 1
  54   29   50 1
  55   29   51 1
  56   29   52 1

#	End of record

