#	Name: ASD02560435
#	Creating user name:	WinNT
#	Creation time:	15. 06. 2019 20:25

#	Modifying user name:	WinNT
#	Modification time:	15. 06. 2019 20:25

#	Program:	/corina/corina34_cracker 3.40 0067  02.08.2006

@<TRIPOS>MOLECULE
ASD02560435
  48   53    0    0    0
SMALL
NO_CHARGES


@<TRIPOS>ATOM
   1 C1             0.0485     1.4001     0.6995 C.2     
   2 C2             0.0581    -0.0048     0.6361 C.2     
   3 C3             1.2133    -0.6700     0.4346 C.2     
   4 N4             2.3918     0.0101     0.2891 N.pl3   
   5 C5             2.4130     1.3847     0.3462 C.2     
   6 C6             1.2108     2.0908     0.5564 C.2     
   7 C7             3.6795    -0.4017     0.0787 C.2     
   8 C8             4.4493     0.7138     0.0126 C.2     
   9 N9             3.6635     1.7841     0.1769 N.2     
  10 C10            5.9397     0.7422    -0.2083 C.3     
  11 N11            4.1201    -1.7252    -0.0446 N.3     
  12 C12            2.9997    -2.6669     0.0807 C.3     
  13 C13            3.5191    -4.0992    -0.0596 C.3     
  14 C14            2.3402    -2.4955     1.4506 C.3     
  15 C15            1.1732    -3.4764     1.5812 C.3     
  16 C16            1.6927    -4.9086     1.4408 C.3     
  17 C17            2.3521    -5.0800     0.0709 C.3     
  18 C18            0.1463    -3.1963     0.4822 C.3     
  19 C19            1.3252    -4.8000    -1.0281 C.3     
  20 C20            0.8057    -3.3677    -0.8877 C.3     
  21 C21            1.9727    -2.3869    -1.0183 C.3     
  22 C22            6.4569     1.4840    -1.4424 C.3     
  23 C23            6.6518     2.0871    -0.0499 C.3     
  24 H24           -0.8799     1.9288     0.8570 H       
  25 H25           -0.8649    -0.5539     0.7497 H       
  26 H26            1.2086    -1.7490     0.3881 H       
  27 H27            1.2131     3.1698     0.6030 H       
  28 H28            6.4784    -0.1526     0.1035 H       
  29 H29            4.6125    -1.8628    -0.9145 H       
  30 H30            3.9889    -4.2213    -1.0356 H       
  31 H31            4.2508    -4.2987     0.7233 H       
  32 H32            3.0719    -2.6950     2.2336 H       
  33 H33            1.9702    -1.4752     1.5506 H       
  34 H34            0.7034    -3.3543     2.5571 H       
  35 H35            2.4243    -5.1081     2.2238 H       
  36 H36            0.8613    -5.6074     1.5338 H       
  37 H37            2.7222    -6.1004    -0.0291 H       
  38 H38           -0.6851    -3.8951     0.5752 H       
  39 H39           -0.2238    -2.1760     0.5822 H       
  40 H40            1.7950    -4.9221    -2.0040 H       
  41 H41            0.4938    -5.4987    -0.9351 H       
  42 H42            0.0741    -3.1682    -1.6707 H       
  43 H43            1.6026    -1.3665    -0.9183 H       
  44 H44            2.4425    -2.5090    -1.9942 H       
  45 H45            7.3361     1.0774    -1.9423 H       
  46 H46            5.7192     1.9515    -2.0946 H       
  47 H47            6.0422     2.9513     0.2141 H       
  48 H48            7.6591     2.0773     0.3664 H       
@<TRIPOS>BOND
   1    1    2 1
   2    1    6 2
   3    1   24 1
   4    2    3 2
   5    2   25 1
   6    3    4 1
   7    3   26 1
   8    4    5 1
   9    4    7 1
  10    5    6 1
  11    5    9 2
  12    6   27 1
  13    7    8 2
  14    7   11 1
  15    8    9 1
  16    8   10 1
  17   10   22 1
  18   10   23 1
  19   10   28 1
  20   11   12 1
  21   11   29 1
  22   12   13 1
  23   12   14 1
  24   12   21 1
  25   13   17 1
  26   13   30 1
  27   13   31 1
  28   14   15 1
  29   14   32 1
  30   14   33 1
  31   15   16 1
  32   15   18 1
  33   15   34 1
  34   16   17 1
  35   16   35 1
  36   16   36 1
  37   17   19 1
  38   17   37 1
  39   18   20 1
  40   18   38 1
  41   18   39 1
  42   19   20 1
  43   19   40 1
  44   19   41 1
  45   20   21 1
  46   20   42 1
  47   21   43 1
  48   21   44 1
  49   22   23 1
  50   22   45 1
  51   22   46 1
  52   23   47 1
  53   23   48 1

#	End of record

