#	Name: ASD01815722
#	Creating user name:	WinNT
#	Creation time:	15. 06. 2019 19:33

#	Modifying user name:	WinNT
#	Modification time:	15. 06. 2019 19:33

#	Program:	/corina/corina34_cracker 3.40 0067  02.08.2006

@<TRIPOS>MOLECULE
ASD01815722
  65   69    0    0    0
SMALL
NO_CHARGES


@<TRIPOS>ATOM
   1 C1            -0.0168     1.3869     0.0097 C.ar    
   2 C2             0.0021    -0.0041     0.0020 C.ar    
   3 C3             1.1801    -0.6897    -0.0129 C.ar    
   4 C4             2.3948     0.0129    -0.0207 C.ar    
   5 C5             2.3717     1.4290    -0.0129 C.ar    
   6 C6             1.1455     2.1015     0.0024 C.ar    
   7 C7             3.6293    -0.6694    -0.0365 C.ar    
   8 C8             4.8031     0.0063    -0.0446 C.ar    
   9 C9             4.8359     1.4095    -0.0374 C.ar    
  10 C10            3.6406     2.1511    -0.0211 C.ar    
  11 C11            6.1026     2.1526    -0.0470 C.2     
  12 N12            6.0328     3.5041    -0.0399 N.am    
  13 C13            4.8302     4.1313    -0.0241 C.2     
  14 N14            3.6961     3.4935    -0.0158 N.2     
  15 O15            7.1745     1.5748    -0.0604 O.2     
  16 C16            7.2655     4.2957    -0.0490 C.3     
  17 C17            7.3196     5.1740     1.2048 C.3     
  18 C18            8.5708     6.0543     1.1481 C.3     
  19 O19            8.5445     6.8410    -0.0446 O.3     
  20 C20            8.5410     6.0734    -1.2500 C.3     
  21 C21            7.2886     5.1938    -1.2896 C.3     
  22 C22            3.6424    -2.1763    -0.0442 C.3     
  23 C23            3.5087    -2.6726    -1.4608 C.2     
  24 C24            2.1765    -2.8218    -2.0657 C.2     
  25 C25            2.0219    -3.5694    -3.1515 C.2     
  26 C26            3.2019    -4.2888    -3.7508 C.3     
  27 C27            4.4657    -3.4453    -3.5894 C.3     
  28 C28            4.5933    -2.9702    -2.1655 C.2     
  29 O29            7.3717     4.3444     2.3672 O.3     
  30 Si30           3.4344    -5.9225    -2.8860 Si      
  31 C31            1.9011    -6.9597    -3.0955 C.3     
  32 C32            4.8934    -6.8144    -3.6253 C.3     
  33 C33            3.7412    -5.6269    -1.0723 C.3     
  34 H34           -0.9630     1.9076     0.0169 H       
  35 H35           -0.9305    -0.5488     0.0083 H       
  36 H36            1.1786    -1.7697    -0.0183 H       
  37 H37            1.1188     3.1811     0.0081 H       
  38 H38            5.7317    -0.5451    -0.0563 H       
  39 H39            4.8132     5.2111    -0.0182 H       
  40 H40            8.1281     3.6295    -0.0650 H       
  41 H41            6.4318     5.8051     1.2460 H       
  42 H42            8.5922     6.7121     2.0170 H       
  43 H43            9.4596     5.4232     1.1477 H       
  44 H44            8.5409     6.7448    -2.1086 H       
  45 H45            9.4294     5.4425    -1.2817 H       
  46 H46            7.3062     4.5752    -2.1869 H       
  47 H47            6.4002     5.8253    -1.2987 H       
  48 H48            4.5813    -2.5336     0.3789 H       
  49 H49            2.8098    -2.5499     0.5518 H       
  50 H50            1.3246    -2.3238    -1.6267 H       
  51 H51            1.0469    -3.6625    -3.6065 H       
  52 H52            3.0178    -4.4654    -4.8105 H       
  53 H53            5.3370    -4.0455    -3.8516 H       
  54 H54            4.4110    -2.5814    -4.2518 H       
  55 H55            5.5702    -2.8784    -1.7143 H       
  56 H56            7.4077     4.8353     3.1995 H       
  57 H57            1.7216    -7.1327    -4.1566 H       
  58 H58            2.0371    -7.9155    -2.5895 H       
  59 H59            1.0475    -6.4379    -2.6629 H       
  60 H60            5.7905    -6.2075    -3.5027 H       
  61 H61            5.0294    -7.7702    -3.1193 H       
  62 H62            4.7139    -6.9874    -4.6864 H       
  63 H63            2.8876    -5.1050    -0.6398 H       
  64 H64            3.8772    -6.5827    -0.5663 H       
  65 H65            4.6383    -5.0200    -0.9498 H       
@<TRIPOS>BOND
   1    1    2 ar
   2    1    6 ar
   3    1   34 1
   4    2    3 ar
   5    2   35 1
   6    3    4 ar
   7    3   36 1
   8    4    5 ar
   9    4    7 ar
  10    5    6 ar
  11    5   10 ar
  12    6   37 1
  13    7    8 ar
  14    7   22 1
  15    8    9 ar
  16    8   38 1
  17    9   10 ar
  18    9   11 1
  19   10   14 1
  20   11   12 am
  21   11   15 2
  22   12   13 1
  23   12   16 1
  24   13   14 2
  25   13   39 1
  26   16   17 1
  27   16   21 1
  28   16   40 1
  29   17   18 1
  30   17   29 1
  31   17   41 1
  32   18   19 1
  33   18   42 1
  34   18   43 1
  35   19   20 1
  36   20   21 1
  37   20   44 1
  38   20   45 1
  39   21   46 1
  40   21   47 1
  41   22   23 1
  42   22   48 1
  43   22   49 1
  44   23   24 1
  45   23   28 2
  46   24   25 2
  47   24   50 1
  48   25   26 1
  49   25   51 1
  50   26   27 1
  51   26   30 1
  52   26   52 1
  53   27   28 1
  54   27   53 1
  55   27   54 1
  56   28   55 1
  57   29   56 1
  58   30   31 1
  59   30   32 1
  60   30   33 1
  61   31   57 1
  62   31   58 1
  63   31   59 1
  64   32   60 1
  65   32   61 1
  66   32   62 1
  67   33   63 1
  68   33   64 1
  69   33   65 1

#	End of record

