#	Name: ASD01230856
#	Creating user name:	WinNT
#	Creation time:	15. 06. 2019 19:15

#	Modifying user name:	WinNT
#	Modification time:	15. 06. 2019 19:15

#	Program:	/corina/corina34_cracker 3.40 0067  02.08.2006

@<TRIPOS>MOLECULE
ASD01230856
  45   48    0    0    0
SMALL
NO_CHARGES


@<TRIPOS>ATOM
   1 C1            -0.2229     3.0957    -1.2939 C.3     
   2 C2            -0.7314     1.6932    -0.9492 C.3     
   3 C3            -2.2175     1.5565    -1.2490 C.3     
   4 C4            -2.6779     2.4778    -2.3700 C.3     
   5 N5            -1.5858     2.7717    -3.3006 N.pl3   
   6 C6            -0.4257     3.2906    -2.7868 C.2     
   7 C7            -1.7246     2.4838    -4.7260 C.3     
   8 C8            -1.3714     3.7327    -5.5351 C.3     
   9 S9             0.2833     4.3038    -5.0664 S.o2    
  10 N10            0.4373     3.9358    -3.4685 N.am    
  11 C11            1.2412     3.2088    -0.9554 C.ar    
  12 O12            1.2790     3.5138    -5.7020 O.2     
  13 O13            0.3471     5.7229    -5.1034 O.2     
  14 C14            1.6666     4.1517    -0.0379 C.ar    
  15 C15            3.0081     4.2578     0.2738 C.ar    
  16 C16            3.9290     3.4167    -0.3344 C.ar    
  17 C17            3.4994     2.4710    -1.2544 C.ar    
  18 C18            2.1561     2.3657    -1.5587 C.ar    
  19 O19            5.2493     3.5193    -0.0298 O.3     
  20 C20            5.6120     4.3842     0.9540 C.ar    
  21 C21            5.6533     3.9569     2.2735 C.ar    
  22 C22            6.0218     4.8362     3.2733 C.ar    
  23 C23            6.3502     6.1439     2.9602 C.ar    
  24 C24            6.3097     6.5733     1.6424 C.ar    
  25 C25            5.9464     5.6928     0.6390 C.ar    
  26 F26            6.7100     7.0025     3.9393 F       
  27 F27            6.6299     7.8500     1.3377 F       
  28 H28           -0.7908     3.8433    -0.7400 H       
  29 H29           -0.1796     0.9590    -1.5362 H       
  30 H30           -0.5617     1.5023     0.1104 H       
  31 H31           -2.4257     0.5250    -1.5333 H       
  32 H32           -2.7816     1.7913    -0.3464 H       
  33 H33           -3.4914     1.9983    -2.9145 H       
  34 H34           -3.0401     3.4111    -1.9387 H       
  35 H35           -1.0517     1.6711    -4.9997 H       
  36 H36           -2.7528     2.1915    -4.9391 H       
  37 H37           -1.3858     3.4933    -6.5984 H       
  38 H38           -2.0990     4.5176    -5.3288 H       
  39 H39            0.9494     4.8061     0.4351 H       
  40 H40            3.3400     4.9949     0.9900 H       
  41 H41            4.2142     1.8152    -1.7292 H       
  42 H42            1.8211     1.6295    -2.2745 H       
  43 H43            5.3969     2.9369     2.5190 H       
  44 H44            6.0534     4.5031     4.3002 H       
  45 H45            5.9150     6.0265    -0.3876 H       
@<TRIPOS>BOND
   1    1    2 1
   2    1   11 1
   3    1    6 1
   4    1   28 1
   5    2    3 1
   6    2   29 1
   7    2   30 1
   8    3    4 1
   9    3   31 1
  10    3   32 1
  11    4    5 1
  12    4   33 1
  13    4   34 1
  14    5    6 1
  15    5    7 1
  16    6   10 2
  17    7    8 1
  18    7   35 1
  19    7   36 1
  20    8    9 1
  21    8   37 1
  22    8   38 1
  23    9   10 am
  24    9   12 2
  25    9   13 2
  26   11   14 ar
  27   11   18 ar
  28   14   15 ar
  29   14   39 1
  30   15   16 ar
  31   15   40 1
  32   16   17 ar
  33   16   19 1
  34   17   18 ar
  35   17   41 1
  36   18   42 1
  37   19   20 1
  38   20   21 ar
  39   20   25 ar
  40   21   22 ar
  41   21   43 1
  42   22   23 ar
  43   22   44 1
  44   23   24 ar
  45   23   26 1
  46   24   25 ar
  47   24   27 1
  48   25   45 1

#	End of record

