#	Name: ASD01918474
#	Creating user name:	WinNT
#	Creation time:	15. 06. 2019 20:11

#	Modifying user name:	WinNT
#	Modification time:	15. 06. 2019 20:11

#	Program:	/corina/corina34_cracker 3.40 0067  02.08.2006

@<TRIPOS>MOLECULE
ASD01918474
  41   44    0    0    0
SMALL
NO_CHARGES


@<TRIPOS>ATOM
   1 F1             0.0034    -0.0041     0.0029 F       
   2 C2            -0.0154     1.3468     0.0101 C.ar    
   3 C3            -0.4069     2.0388    -1.1237 C.ar    
   4 C4            -0.4268     3.4197    -1.1186 C.ar    
   5 C5            -0.0538     4.1143     0.0247 C.ar    
   6 C6             0.3385     3.4183     1.1606 C.ar    
   7 C7             0.3515     2.0373     1.1529 C.ar    
   8 N8            -0.0728     5.5136     0.0319 N.am    
   9 C9             1.1888     6.2400     0.1228 C.3     
  10 C10            1.2248     7.4709    -0.7828 C.3     
  11 N11           -0.0200     8.2246    -0.6227 N.pl3   
  12 N12           -0.2755     9.5829    -0.7600 N.2     
  13 C13           -1.5565     9.7945    -0.5387 C.2     
  14 O14           -2.1804    11.0018    -0.5902 O.3     
  15 C15           -1.3730    12.1361    -0.9119 C.3     
  16 C16           -2.2298    13.3759    -0.9224 C.ar    
  17 C17           -2.8553    13.7735    -2.0891 C.ar    
  18 C18           -3.6417    14.9107    -2.1002 C.ar    
  19 C19           -3.8031    15.6510    -0.9447 C.ar    
  20 C20           -3.1772    15.2534     0.2248 C.ar    
  21 F21           -3.3343    15.9765     1.3552 F       
  22 C22           -2.3944    14.1117     0.2360 C.ar    
  23 C23           -2.1708     8.5700    -0.2419 C.2     
  24 C24           -1.2053     7.6077    -0.2906 C.2     
  25 C25           -1.2619     6.1571    -0.0512 C.2     
  26 O26           -2.3197     5.5686     0.0695 O.2     
  27 H27           -0.6966     1.4982    -2.0127 H       
  28 H28           -0.7319     3.9591    -2.0031 H       
  29 H29            0.6290     3.9566     2.0507 H       
  30 H30            0.6520     1.4956     2.0376 H       
  31 H31            1.3390     6.5574     1.1547 H       
  32 H32            2.0017     5.5710    -0.1597 H       
  33 H33            2.0700     8.1013    -0.5067 H       
  34 H34            1.3286     7.1560    -1.8211 H       
  35 H35           -0.5856    12.2449    -0.1661 H       
  36 H36           -0.9249    11.9959    -1.8956 H       
  37 H37           -2.7295    13.1956    -2.9928 H       
  38 H38           -4.1297    15.2206    -3.0125 H       
  39 H39           -4.4168    16.5397    -0.9538 H       
  40 H40           -1.9091    13.7983     1.1486 H       
  41 H41           -3.2158     8.4168    -0.0159 H       
@<TRIPOS>BOND
   1    1    2 1
   2    2    7 ar
   3    2    3 ar
   4    3    4 ar
   5    3   27 1
   6    4    5 ar
   7    4   28 1
   8    5    6 ar
   9    5    8 1
  10    6    7 ar
  11    6   29 1
  12    7   30 1
  13    8   25 am
  14    8    9 1
  15    9   10 1
  16    9   31 1
  17    9   32 1
  18   10   11 1
  19   10   33 1
  20   10   34 1
  21   11   24 1
  22   11   12 1
  23   12   13 2
  24   13   14 1
  25   13   23 1
  26   14   15 1
  27   15   16 1
  28   15   35 1
  29   15   36 1
  30   16   22 ar
  31   16   17 ar
  32   17   18 ar
  33   17   37 1
  34   18   19 ar
  35   18   38 1
  36   19   20 ar
  37   19   39 1
  38   20   21 1
  39   20   22 ar
  40   22   40 1
  41   23   24 2
  42   23   41 1
  43   24   25 1
  44   25   26 2

#	End of record

