#	Name: ASD06170224
#	Creating user name:	WinNT
#	Creation time:	15. 06. 2019 21:05

#	Modifying user name:	WinNT
#	Modification time:	15. 06. 2019 21:05

#	Program:	/corina/corina34_cracker 3.40 0067  02.08.2006

@<TRIPOS>MOLECULE
ASD06170224
  61   65    0    0    0
SMALL
NO_CHARGES


@<TRIPOS>ATOM
   1 C1             1.7792     1.4546    -2.9902 C.2     
   2 C2             2.1806     0.1596    -3.4213 C.2     
   3 C3             3.5482    -0.1091    -3.4582 C.2     
   4 C4             4.4287     0.9077    -3.0709 C.2     
   5 N5             3.9739     2.0701    -2.6873 N.2     
   6 N6             2.7230     2.3501    -2.6421 N.am    
   7 C7             1.1896    -0.8582    -3.8130 C.2     
   8 O8             1.5569    -1.9019    -4.3182 O.2     
   9 N9            -0.1238    -0.6326    -3.6115 N.am    
  10 C10            2.3274     3.6231    -2.2189 C.ar    
  11 C11            1.5526     3.7668    -1.0747 C.ar    
  12 C12            1.1637     5.0252    -0.6597 C.ar    
  13 C13            1.5442     6.1415    -1.3819 C.ar    
  14 C14            2.3154     6.0021    -2.5213 C.ar    
  15 C15            2.7130     4.7471    -2.9385 C.ar    
  16 O16            0.5978     1.7511    -2.9413 O.2     
  17 C17           -1.0719    -1.5472    -4.0854 C.ar    
  18 C18           -2.3264    -1.1036    -4.4840 C.ar    
  19 C19           -3.2615    -2.0073    -4.9521 C.ar    
  20 C20           -2.9459    -3.3589    -5.0235 C.ar    
  21 C21           -1.6935    -3.8006    -4.6254 C.ar    
  22 C22           -0.7565    -2.8971    -4.1624 C.ar    
  23 O23           -3.8660    -4.2485    -5.4837 O.3     
  24 C24           -3.3816    -7.6007    -4.1420 C.ar    
  25 C25           -3.6907    -6.2483    -4.1887 C.ar    
  26 C26           -3.5728    -5.5709    -5.3967 C.ar    
  27 C27           -3.1463    -6.2833    -6.5174 C.ar    
  28 C28           -2.8577    -7.6253    -6.3923 C.ar    
  29 N29           -2.9799    -8.2399    -5.2302 N.ar    
  30 C30           -3.0756    -9.5719    -2.8536 C.2     
  31 O31           -2.5113   -10.0903    -3.7975 O.2     
  32 N32           -3.4896    -8.2919    -2.9361 N.am    
  33 N33           -3.2872   -10.2771    -1.7247 N.am    
  34 C34           -2.8898   -11.6747    -1.5003 C.3     
  35 C35           -3.3594   -12.0626    -0.0824 C.3     
  36 C36           -4.4936   -11.0420     0.1994 C.3     
  37 C37           -3.9499    -9.7729    -0.5082 C.3     
  38 F38           -4.4821    -1.5770    -5.3396 F       
  39 H39            3.9171    -1.0732    -3.7759 H       
  40 H40            5.4937     0.7291    -3.0891 H       
  41 H41           -0.4121     0.1635    -3.1382 H       
  42 H42            1.2545     2.8954    -0.5107 H       
  43 H43            0.5614     5.1376     0.2297 H       
  44 H44            1.2381     7.1245    -1.0555 H       
  45 H45            2.6105     6.8759    -3.0832 H       
  46 H46            3.3190     4.6393    -3.8260 H       
  47 H47           -2.5710    -0.0532    -4.4278 H       
  48 H48           -1.4488    -4.8510    -4.6812 H       
  49 H49            0.2203    -3.2416    -3.8564 H       
  50 H50           -4.0184    -5.7301    -3.2996 H       
  51 H51           -3.0437    -5.7892    -7.4723 H       
  52 H52           -2.5270    -8.1817    -7.2569 H       
  53 H53           -3.8627    -7.8516    -2.1564 H       
  54 H54           -3.3675   -12.3190    -2.2383 H       
  55 H55           -1.8060   -11.7676    -1.5702 H       
  56 H56           -3.7458   -13.0817    -0.0695 H       
  57 H57           -2.5491   -11.9471     0.6374 H       
  58 H58           -5.4332   -11.3693    -0.2457 H       
  59 H59           -4.6086   -10.8714     1.2698 H       
  60 H60           -3.2313    -9.2586     0.1298 H       
  61 H61           -4.7702    -9.1054    -0.7719 H       
@<TRIPOS>BOND
   1    1    2 1
   2    1    6 am
   3    1   16 2
   4    2    3 2
   5    2    7 1
   6    3    4 1
   7    3   39 1
   8    4    5 2
   9    4   40 1
  10    5    6 1
  11    6   10 1
  12    7    8 2
  13    7    9 am
  14    9   17 1
  15    9   41 1
  16   10   11 ar
  17   10   15 ar
  18   11   12 ar
  19   11   42 1
  20   12   13 ar
  21   12   43 1
  22   13   14 ar
  23   13   44 1
  24   14   15 ar
  25   14   45 1
  26   15   46 1
  27   17   18 ar
  28   17   22 ar
  29   18   19 ar
  30   18   47 1
  31   19   20 ar
  32   19   38 1
  33   20   21 ar
  34   20   23 1
  35   21   22 ar
  36   21   48 1
  37   22   49 1
  38   23   26 1
  39   24   25 ar
  40   24   29 ar
  41   24   32 1
  42   25   26 ar
  43   25   50 1
  44   26   27 ar
  45   27   28 ar
  46   27   51 1
  47   28   29 ar
  48   28   52 1
  49   30   31 2
  50   30   32 am
  51   30   33 am
  52   32   53 1
  53   33   34 1
  54   33   37 1
  55   34   35 1
  56   34   54 1
  57   34   55 1
  58   35   36 1
  59   35   56 1
  60   35   57 1
  61   36   37 1
  62   36   58 1
  63   36   59 1
  64   37   60 1
  65   37   61 1

#	End of record

