#	Name: ASD06660072
#	Creating user name:	WinNT
#	Creation time:	15. 06. 2019 21:07

#	Modifying user name:	WinNT
#	Modification time:	15. 06. 2019 21:07

#	Program:	/corina/corina34_cracker 3.40 0067  02.08.2006

@<TRIPOS>MOLECULE
ASD06660072
  77   80    0    0    0
SMALL
NO_CHARGES


@<TRIPOS>ATOM
   1 C1             0.2928     1.9425     1.0389 C.2     
   2 C2             0.0457     0.5491     0.5209 C.3     
   3 C3            -1.0927     0.5793    -0.5009 C.3     
   4 O4             1.3744     2.4598     0.8892 O.2     
   5 O5            -0.6905     2.6111     1.6618 O.3     
   6 C6            -1.4280    -0.8286    -0.9211 C.ar    
   7 C7            -2.3547    -1.5609    -0.2019 C.ar    
   8 C8            -2.6643    -2.8514    -0.5842 C.ar    
   9 C9            -2.0436    -3.4136    -1.6925 C.ar    
  10 C10           -1.1132    -2.6752    -2.4126 C.ar    
  11 C11           -0.8124    -1.3832    -2.0282 C.ar    
  12 N12           -2.3540    -4.7186    -2.0816 N.3     
  13 C13           -1.5867    -5.1098    -3.2710 C.3     
  14 C14           -2.0562    -6.4842    -3.7534 C.3     
  15 C15           -1.8550    -7.5088    -2.6335 C.3     
  16 C16           -2.6252    -7.0532    -1.3910 C.3     
  17 C17           -2.1393    -5.6623    -0.9772 C.3     
  18 C18           -2.3787    -8.8726    -3.0881 C.3     
  19 N19           -2.0783    -9.8770    -2.0648 N.pl3   
  20 C20           -2.4602   -11.2000    -2.2560 C.ar    
  21 C21           -3.1261   -11.5621    -3.4199 C.ar    
  22 C22           -3.5015   -12.8878    -3.5971 C.ar    
  23 C23           -3.1918   -13.8048    -2.5926 C.ar    
  24 C24           -2.5288   -13.3705    -1.4653 C.ar    
  25 N25           -2.1805   -12.1040    -1.3287 N.ar    
  26 O26           -4.1542   -13.2813    -4.7205 O.3     
  27 C27           -4.5017   -14.6639    -4.8182 C.3     
  28 C28            2.2843    -0.4062     0.6369 C.2     
  29 C29            3.5456    -0.8315    -0.0037 C.ar    
  30 C30            3.7760    -2.1834    -0.2686 C.ar    
  31 C31            4.9542    -2.5747    -0.8669 C.ar    
  32 C32            5.9104    -1.6290    -1.2054 C.ar    
  33 C33            5.6868    -0.2859    -0.9447 C.ar    
  34 C34            4.5092     0.1171    -0.3518 C.ar    
  35 O35            2.1678    -0.4613     1.8458 O.2     
  36 N36            1.2627     0.0430    -0.1188 N.am    
  37 C37            4.2649     1.5781    -0.0748 C.3     
  38 F38            7.0641    -2.0181    -1.7909 F       
  39 C39            2.7383    -3.2123     0.0996 C.3     
  40 C40            1.7216    -3.3404    -1.0365 C.3     
  41 H41           -0.2274    -0.1037     1.3499 H       
  42 H42           -1.9710     1.0436    -0.0526 H       
  43 H43           -0.7828     1.1547    -1.3732 H       
  44 H44           -0.4846     3.5019     1.9767 H       
  45 H45           -2.8366    -1.1234     0.6599 H       
  46 H46           -3.3879    -3.4229    -0.0219 H       
  47 H47           -0.6288    -3.1093    -3.2748 H       
  48 H48           -0.0926    -0.8069    -2.5904 H       
  49 H49           -1.7419    -4.3751    -4.0611 H       
  50 H50           -0.5268    -5.1553    -3.0206 H       
  51 H51           -3.1127    -6.4360    -4.0170 H       
  52 H52           -1.4757    -6.7811    -4.6269 H       
  53 H53           -0.7938    -7.5857    -2.3964 H       
  54 H54           -3.6907    -7.0139    -1.6175 H       
  55 H55           -2.4513    -7.7566    -0.5768 H       
  56 H56           -1.0768    -5.7052    -0.7376 H       
  57 H57           -2.6958    -5.3289    -0.1012 H       
  58 H58           -3.4570    -8.8166    -3.2368 H       
  59 H59           -1.8968    -9.1530    -4.0248 H       
  60 H60           -1.6130    -9.6189    -1.2537 H       
  61 H61           -3.3492   -10.8238    -4.1759 H       
  62 H62           -3.4689   -14.8434    -2.6971 H       
  63 H63           -2.2868   -14.0765    -0.6847 H       
  64 H64           -5.0173   -14.8432    -5.7617 H       
  65 H65           -3.5964   -15.2698    -4.7781 H       
  66 H66           -5.1563   -14.9335    -3.9895 H       
  67 H67            5.1334    -3.6198    -1.0721 H       
  68 H68            6.4347     0.4465    -1.2103 H       
  69 H69            1.3333     0.0313    -1.0861 H       
  70 H70            4.6414     1.8277     0.9173 H       
  71 H71            4.7815     2.1809    -0.8216 H       
  72 H72            3.1952     1.7825    -0.1195 H       
  73 H73            3.2231    -4.1747     0.2636 H       
  74 H74            2.2273    -2.9028     1.0113 H       
  75 H75            0.9175    -4.0099    -0.7308 H       
  76 H76            1.3088    -2.3583    -1.2671 H       
  77 H77            2.2141    -3.7444    -1.9210 H       
@<TRIPOS>BOND
   1    1    2 1
   2    1    4 2
   3    1    5 1
   4    2    3 1
   5    2   36 1
   6    2   41 1
   7    3    6 1
   8    3   42 1
   9    3   43 1
  10    5   44 1
  11    6    7 ar
  12    6   11 ar
  13    7    8 ar
  14    7   45 1
  15    8    9 ar
  16    8   46 1
  17    9   10 ar
  18    9   12 1
  19   10   11 ar
  20   10   47 1
  21   11   48 1
  22   12   13 1
  23   12   17 1
  24   13   14 1
  25   13   49 1
  26   13   50 1
  27   14   15 1
  28   14   51 1
  29   14   52 1
  30   15   16 1
  31   15   18 1
  32   15   53 1
  33   16   17 1
  34   16   54 1
  35   16   55 1
  36   17   56 1
  37   17   57 1
  38   18   19 1
  39   18   58 1
  40   18   59 1
  41   19   20 1
  42   19   60 1
  43   20   21 ar
  44   20   25 ar
  45   21   22 ar
  46   21   61 1
  47   22   23 ar
  48   22   26 1
  49   23   24 ar
  50   23   62 1
  51   24   25 ar
  52   24   63 1
  53   26   27 1
  54   27   64 1
  55   27   65 1
  56   27   66 1
  57   28   29 1
  58   28   35 2
  59   28   36 am
  60   29   30 ar
  61   29   34 ar
  62   30   31 ar
  63   30   39 1
  64   31   32 ar
  65   31   67 1
  66   32   33 ar
  67   32   38 1
  68   33   34 ar
  69   33   68 1
  70   34   37 1
  71   36   69 1
  72   37   70 1
  73   37   71 1
  74   37   72 1
  75   39   40 1
  76   39   73 1
  77   39   74 1
  78   40   75 1
  79   40   76 1
  80   40   77 1

#	End of record

