#	Name: ASD08070192
#	Creating user name:	WinNT
#	Creation time:	15. 06. 2019 21:14

#	Modifying user name:	WinNT
#	Modification time:	15. 06. 2019 21:14

#	Program:	/corina/corina34_cracker 3.40 0067  02.08.2006

@<TRIPOS>MOLECULE
ASD08070192
  42   43    0    0    0
SMALL
NO_CHARGES


@<TRIPOS>ATOM
   1 N1            -0.0157     1.3070     0.0092 N.ar    
   2 C2             0.0021    -0.0041     0.0020 C.ar    
   3 C3             1.1963    -0.7215    -0.0132 C.ar    
   4 C4             2.3896    -0.0574    -0.0210 C.ar    
   5 C5             2.3666     1.3514    -0.0132 C.ar    
   6 C6             3.5530     2.0975    -0.0210 C.ar    
   7 C7             3.4862     3.4817    -0.0134 C.ar    
   8 C8             2.2407     4.1336     0.0024 C.ar    
   9 C9             1.0828     3.4254     0.0105 C.ar    
  10 C10            1.1156     2.0186     0.0022 C.ar    
  11 C11            4.7315     4.2771    -0.0214 C.2     
  12 O12            5.8104     3.7171    -0.0347 O.2     
  13 N13            4.6712     5.6235    -0.0141 N.am    
  14 C14            4.9546     9.0171    -2.6932 C.3     
  15 C15            5.2344     7.6378    -2.0932 C.3     
  16 C16            5.6261     7.7914    -0.6221 C.3     
  17 C17            5.9058     6.4121    -0.0221 C.3     
  18 C18            6.4172     6.5735     1.4109 C.3     
  19 C19            6.8146     5.2049     1.9677 C.3     
  20 C20            7.3260     5.3663     3.4006 C.3     
  21 H21           -0.9342    -0.5423     0.0084 H       
  22 H22            1.1783    -1.8013    -0.0185 H       
  23 H23            3.3251    -0.5971    -0.0325 H       
  24 H24            4.5106     1.5982    -0.0324 H       
  25 H25            2.2047     5.2130     0.0085 H       
  26 H26            0.1347     3.9425     0.0233 H       
  27 H27            3.8103     6.0704    -0.0036 H       
  28 H28            4.1391     9.4920    -2.1478 H       
  29 H29            5.8499     9.6344    -2.6181 H       
  30 H30            4.6756     8.9076    -3.7412 H       
  31 H31            4.3391     7.0205    -2.1682 H       
  32 H32            6.0499     7.1629    -2.6386 H       
  33 H33            6.5213     8.4087    -0.5471 H       
  34 H34            4.8105     8.2663    -0.0767 H       
  35 H35            6.6594     5.9012    -0.6214 H       
  36 H36            7.2848     7.2333     1.4149 H       
  37 H37            5.6307     7.0036     2.0310 H       
  38 H38            5.9470     4.5451     1.9637 H       
  39 H39            7.6011     4.7748     1.3475 H       
  40 H40            7.6091     4.3914     3.7973 H       
  41 H41            8.1936     6.0261     3.4047 H       
  42 H42            6.5395     5.7965     4.0208 H       
@<TRIPOS>BOND
   1    1    2 ar
   2    1   10 ar
   3    2    3 ar
   4    2   21 1
   5    3    4 ar
   6    3   22 1
   7    4    5 ar
   8    4   23 1
   9    5    6 ar
  10    5   10 ar
  11    6    7 ar
  12    6   24 1
  13    7    8 ar
  14    7   11 1
  15    8    9 ar
  16    8   25 1
  17    9   10 ar
  18    9   26 1
  19   11   12 2
  20   11   13 am
  21   13   17 1
  22   13   27 1
  23   14   15 1
  24   14   28 1
  25   14   29 1
  26   14   30 1
  27   15   16 1
  28   15   31 1
  29   15   32 1
  30   16   17 1
  31   16   33 1
  32   16   34 1
  33   17   18 1
  34   17   35 1
  35   18   19 1
  36   18   36 1
  37   18   37 1
  38   19   20 1
  39   19   38 1
  40   19   39 1
  41   20   40 1
  42   20   41 1
  43   20   42 1

#	End of record

