#	Name: ASD01810053
#	Creating user name:	WinNT
#	Creation time:	15. 06. 2019 19:23

#	Modifying user name:	WinNT
#	Modification time:	15. 06. 2019 19:23

#	Program:	/corina/corina34_cracker 3.40 0067  02.08.2006

@<TRIPOS>MOLECULE
ASD01810053
  62   66    0    0    0
SMALL
NO_CHARGES


@<TRIPOS>ATOM
   1 C1             0.1976     1.2957     0.1709 C.ar    
   2 C2             0.2369    -0.0887     0.1579 C.ar    
   3 C3             1.4497    -0.7507     0.1100 C.ar    
   4 C4             2.6304    -0.0254     0.0745 C.ar    
   5 C5             2.5901     1.3706     0.0872 C.ar    
   6 C6             1.3697     2.0260     0.1357 C.ar    
   7 N7             3.9741    -0.3888     0.0240 N.am    
   8 C8             4.7171     0.7338     0.0068 C.2     
   9 N9             3.9112     1.8117     0.0440 N.am    
  10 C10            4.3485     3.2099     0.0391 C.3     
  11 C11            5.2338     3.4734     1.2603 C.3     
  12 C12            5.7369     4.9181     1.2174 C.3     
  13 N13            6.4996     5.1356    -0.0185 N.3     
  14 C14            5.6574     4.9345    -1.2045 C.3     
  15 C15            5.1519     3.4903    -1.2339 C.3     
  16 O16            5.9327     0.7690    -0.0360 O.2     
  17 C17            7.1146     6.4696    -0.0297 C.3     
  18 C18            8.0004     6.6143    -1.2703 C.3     
  19 C19            8.5899     8.0261    -1.3084 C.3     
  20 N20            7.5016     9.0114    -1.3443 N.3     
  21 C21            6.6655     8.9231    -0.1404 C.3     
  22 C22            6.0186     7.5381    -0.0674 C.3     
  23 C23            8.0284    10.3713    -1.5209 C.3     
  24 C24            6.9125    11.2912    -1.9447 C.ar    
  25 Cl25          -1.2423    -0.9962     0.2024 Cl      
  26 C26            6.4906    11.3051    -3.2608 C.ar    
  27 C27            5.4668    12.1491    -3.6496 C.ar    
  28 C28            4.8650    12.9785    -2.7221 C.ar    
  29 C29            5.2864    12.9638    -1.4054 C.ar    
  30 C30            6.3069    12.1170    -1.0158 C.ar    
  31 C31            7.1468    10.4008    -4.2720 C.3     
  32 F32            6.4978    10.5310    -5.5045 F       
  33 F33            8.4921    10.7579    -4.4134 F       
  34 F34            7.0597     9.0740    -3.8370 F       
  35 H35           -0.7535     1.8063     0.2042 H       
  36 H36            1.4771    -1.8303     0.1007 H       
  37 H37            1.3351     3.1054     0.1453 H       
  38 H38            4.3163    -1.2962     0.0050 H       
  39 H39            3.4774     3.8642     0.0727 H       
  40 H40            4.6546     3.3167     2.1703 H       
  41 H41            6.0840     2.7914     1.2474 H       
  42 H42            4.8867     5.5997     1.2442 H       
  43 H43            6.3791     5.1047     2.0781 H       
  44 H44            4.8076     5.6160    -1.1664 H       
  45 H45            6.2419     5.1330    -2.1029 H       
  46 H46            6.0008     2.8086    -1.2860 H       
  47 H47            4.5142     3.3456    -2.1060 H       
  48 H48            7.7202     6.5990     0.8674 H       
  49 H49            8.8082     5.8837    -1.2278 H       
  50 H50            7.4027     6.4452    -2.1659 H       
  51 H51            9.1986     8.1896    -0.4191 H       
  52 H52            9.2097     8.1369    -2.1981 H       
  53 H53            7.2833     9.0825     0.7434 H       
  54 H54            5.8876     9.6856    -0.1818 H       
  55 H55            5.3897     7.3836    -0.9441 H       
  56 H56            5.4104     7.4676     0.8344 H       
  57 H57            8.4509    10.7224    -0.5794 H       
  58 H58            8.8039    10.3639    -2.2868 H       
  59 H59            5.1377    12.1605    -4.6781 H       
  60 H60            4.0658    13.6382    -3.0260 H       
  61 H61            4.8164    13.6121    -0.6807 H       
  62 H62            6.6361    12.1056     0.0127 H       
@<TRIPOS>BOND
   1    1    2 ar
   2    1    6 ar
   3    1   35 1
   4    2    3 ar
   5    2   25 1
   6    3    4 ar
   7    3   36 1
   8    4    5 ar
   9    4    7 1
  10    5    6 ar
  11    5    9 1
  12    6   37 1
  13    7    8 am
  14    7   38 1
  15    8    9 am
  16    8   16 2
  17    9   10 1
  18   10   11 1
  19   10   15 1
  20   10   39 1
  21   11   12 1
  22   11   40 1
  23   11   41 1
  24   12   13 1
  25   12   42 1
  26   12   43 1
  27   13   14 1
  28   13   17 1
  29   14   15 1
  30   14   44 1
  31   14   45 1
  32   15   46 1
  33   15   47 1
  34   17   18 1
  35   17   22 1
  36   17   48 1
  37   18   19 1
  38   18   49 1
  39   18   50 1
  40   19   20 1
  41   19   51 1
  42   19   52 1
  43   20   21 1
  44   20   23 1
  45   21   22 1
  46   21   53 1
  47   21   54 1
  48   22   55 1
  49   22   56 1
  50   23   24 1
  51   23   57 1
  52   23   58 1
  53   24   26 ar
  54   24   30 ar
  55   26   27 ar
  56   26   31 1
  57   27   28 ar
  58   27   59 1
  59   28   29 ar
  60   28   60 1
  61   29   30 ar
  62   29   61 1
  63   30   62 1
  64   31   32 1
  65   31   33 1
  66   31   34 1

#	End of record

