#	Name: ASD01911003
#	Creating user name:	WinNT
#	Creation time:	15. 06. 2019 19:56

#	Modifying user name:	WinNT
#	Modification time:	15. 06. 2019 19:56

#	Program:	/corina/corina34_cracker 3.40 0067  02.08.2006

@<TRIPOS>MOLECULE
ASD01911003
  58   62    0    0    0
SMALL
NO_CHARGES


@<TRIPOS>ATOM
   1 N1            -4.7521    -3.3304     1.0068 N.3     
   2 C2            -3.5026    -2.6295     1.3316 C.3     
   3 C3            -2.6797    -2.4401     0.0529 C.3     
   4 N4            -3.5233    -1.7742    -0.9512 N.am    
   5 C5            -4.8509    -2.3418    -1.2315 C.3     
   6 C6            -5.5883    -2.5351     0.0978 C.3     
   7 C7            -3.0915    -0.6728    -1.5969 C.2     
   8 C8            -3.8996    -0.0921    -2.6876 C.ar    
   9 C9            -4.0112     1.2963    -2.8122 C.ar    
  10 C10           -4.7641     1.8438    -3.8283 C.ar    
  11 C11           -5.4176     1.0220    -4.7352 C.ar    
  12 C12           -5.3133    -0.3740    -4.6199 C.ar    
  13 C13           -4.5467    -0.9278    -3.5968 C.ar    
  14 C14           -5.9870    -1.2247    -5.5542 C.1     
  15 O15           -2.0365    -0.1575    -1.2813 O.2     
  16 C16           -6.5394    -1.9222    -6.3202 C.1     
  17 C17           -7.2131    -2.7729    -7.2545 C.ar    
  18 N18           -7.1094    -4.0935    -7.1387 N.ar    
  19 C19           -7.7141    -4.9090    -7.9782 C.ar    
  20 C20           -8.4829    -4.4177    -9.0171 C.ar    
  21 C21           -8.6189    -3.0447    -9.1758 C.ar    
  22 C22           -7.9797    -2.2093    -8.2784 C.ar    
  23 C23           -5.4472    -3.6635     2.1563 C.ar    
  24 O24           -6.1575     1.5666    -5.7327 O.3     
  25 N25           -6.6026    -4.3033     2.0509 N.ar    
  26 C26           -7.2920    -4.6363     3.1296 C.ar    
  27 C27           -6.7917    -4.3080     4.3798 C.ar    
  28 C28           -5.5802    -3.6387     4.4538 C.ar    
  29 N29           -4.9387    -3.3399     3.3363 N.ar    
  30 C30           -6.2200     2.9931    -5.7896 C.3     
  31 C31           -7.0935     3.4185    -6.9716 C.3     
  32 C32           -7.3820     4.9121    -7.1352 C.3     
  33 C33           -6.4229     4.2084    -8.0973 C.3     
  34 H34           -3.7334    -1.6556     1.7632 H       
  35 H35           -2.9306    -3.2190     2.0482 H       
  36 H36           -1.8079    -1.8218     0.2667 H       
  37 H37           -2.3597    -3.4116    -0.3239 H       
  38 H38           -5.4145    -1.6586    -1.8669 H       
  39 H39           -4.7396    -3.3039    -1.7318 H       
  40 H40           -6.5289    -3.0561    -0.0804 H       
  41 H41           -5.7901    -1.5625     0.5466 H       
  42 H42           -3.5057     1.9419    -2.1093 H       
  43 H43           -4.8461     2.9169    -3.9187 H       
  44 H44           -4.4623    -2.0003    -3.5024 H       
  45 H45           -7.6074    -5.9764    -7.8534 H       
  46 H46           -8.9734    -5.0960    -9.6996 H       
  47 H47           -9.2144    -2.6385    -9.9800 H       
  48 H48           -8.0645    -1.1368    -8.3724 H       
  49 H49           -8.2334    -5.1575     3.0373 H       
  50 H50           -7.3343    -4.5676     5.2768 H       
  51 H51           -5.1630    -3.3680     5.4125 H       
  52 H52           -6.6502     3.3751    -4.8638 H       
  53 H53           -5.2153     3.3960    -5.9168 H       
  54 H54           -7.8835     2.7201    -7.2477 H       
  55 H55           -8.3617     5.1964    -7.5193 H       
  56 H56           -6.9496     5.5917    -6.4008 H       
  57 H57           -5.3594     4.4249    -7.9959 H       
  58 H58           -6.7715     4.0296    -9.1144 H       
@<TRIPOS>BOND
   1    1    2 1
   2    1   23 1
   3    1    6 1
   4    2    3 1
   5    2   34 1
   6    2   35 1
   7    3    4 1
   8    3   36 1
   9    3   37 1
  10    4    5 1
  11    4    7 am
  12    5    6 1
  13    5   38 1
  14    5   39 1
  15    6   40 1
  16    6   41 1
  17    7    8 1
  18    7   15 2
  19    8    9 ar
  20    8   13 ar
  21    9   10 ar
  22    9   42 1
  23   10   11 ar
  24   10   43 1
  25   11   12 ar
  26   11   24 1
  27   12   13 ar
  28   12   14 1
  29   13   44 1
  30   14   16 3
  31   16   17 1
  32   17   18 ar
  33   17   22 ar
  34   18   19 ar
  35   19   20 ar
  36   19   45 1
  37   20   21 ar
  38   20   46 1
  39   21   22 ar
  40   21   47 1
  41   22   48 1
  42   23   25 ar
  43   23   29 ar
  44   24   30 1
  45   25   26 ar
  46   26   27 ar
  47   26   49 1
  48   27   28 ar
  49   27   50 1
  50   28   29 ar
  51   28   51 1
  52   30   31 1
  53   30   52 1
  54   30   53 1
  55   31   32 1
  56   31   33 1
  57   31   54 1
  58   32   33 1
  59   32   55 1
  60   32   56 1
  61   33   57 1
  62   33   58 1

#	End of record

