#	Name: ASD03950093
#	Creating user name:	WinNT
#	Creation time:	15. 06. 2019 20:48

#	Modifying user name:	WinNT
#	Modification time:	15. 06. 2019 20:48

#	Program:	/corina/corina34_cracker 3.40 0067  02.08.2006

@<TRIPOS>MOLECULE
ASD03950093
  41   44    0    0    0
SMALL
NO_CHARGES


@<TRIPOS>ATOM
   1 N1            -0.0169     1.3942     0.0097 N.pl3   
   2 N2             0.0021    -0.0041     0.0020 N.2     
   3 C3             1.2312    -0.4340    -0.0120 C.2     
   4 C4             2.1096     0.7332    -0.0141 C.ar    
   5 C5             3.4975     0.8984    -0.0264 C.ar    
   6 C6             4.0422     2.1746    -0.0248 C.ar    
   7 C7             3.2126     3.2970    -0.0104 C.ar    
   8 C8             1.8310     3.1496     0.0020 C.ar    
   9 C9             1.2672     1.8605    -0.0000 C.ar    
  10 C10            0.9590     4.3395     0.0166 C.2     
  11 O11           -0.2497     4.2074     0.0275 O.2     
  12 N12            1.5022     5.5730     0.0181 N.am    
  13 C13            6.3710     1.3084    -0.0521 C.2     
  14 C14            5.5166     2.3472    -0.0379 C.2     
  15 C15            6.1293     3.5987    -0.0370 C.2     
  16 C16            7.4597     3.5715    -0.0503 C.2     
  17 S17            8.0246     1.9066    -0.0651 S.3     
  18 N18            0.9736    -4.6788    -0.0274 N.3     
  19 C19            1.5338    -4.0593     1.1804 C.3     
  20 C20            1.1383    -2.5817     1.2277 C.3     
  21 C21            1.6687    -1.8761    -0.0235 C.3     
  22 C22            1.1086    -2.5708    -1.2678 C.3     
  23 C23            1.5050    -4.0488    -1.2427 C.3     
  24 H24           -0.8150     1.9455     0.0166 H       
  25 H25            4.1449     0.0341    -0.0369 H       
  26 H26            3.6471     4.2858    -0.0086 H       
  27 H27            2.4664     5.6783     0.0094 H       
  28 H28            0.9289     6.3553     0.0277 H       
  29 H29            6.0853     0.2668    -0.0510 H       
  30 H30            5.5671     4.5207    -0.0267 H       
  31 H31            8.0978     4.4428    -0.0525 H       
  32 H32            1.1400    -5.6740    -0.0337 H       
  33 H33            1.1454    -4.5676     2.0629 H       
  34 H34            2.6204    -4.1440     1.1614 H       
  35 H35            0.0521    -2.4965     1.2606 H       
  36 H36            1.5673    -2.1184     2.1162 H       
  37 H37            2.7575    -1.9263    -0.0361 H       
  38 H38            0.0220    -2.4855    -1.2741 H       
  39 H39            1.5165    -2.0998    -2.1621 H       
  40 H40            2.5917    -4.1335    -1.2503 H       
  41 H41            1.0957    -4.5495    -2.1201 H       
@<TRIPOS>BOND
   1    1    2 1
   2    1    9 1
   3    1   24 1
   4    2    3 2
   5    3    4 1
   6    3   21 1
   7    4    5 ar
   8    4    9 ar
   9    5    6 ar
  10    5   25 1
  11    6    7 ar
  12    6   14 1
  13    7    8 ar
  14    7   26 1
  15    8    9 ar
  16    8   10 1
  17   10   11 2
  18   10   12 am
  19   12   27 1
  20   12   28 1
  21   13   14 2
  22   13   17 1
  23   13   29 1
  24   14   15 1
  25   15   16 2
  26   15   30 1
  27   16   17 1
  28   16   31 1
  29   18   19 1
  30   18   23 1
  31   18   32 1
  32   19   20 1
  33   19   33 1
  34   19   34 1
  35   20   21 1
  36   20   35 1
  37   20   36 1
  38   21   22 1
  39   21   37 1
  40   22   23 1
  41   22   38 1
  42   22   39 1
  43   23   40 1
  44   23   41 1

#	End of record

