#	Name: ASD01811064
#	Creating user name:	WinNT
#	Creation time:	15. 06. 2019 19:25

#	Modifying user name:	WinNT
#	Modification time:	15. 06. 2019 19:25

#	Program:	/corina/corina34_cracker 3.40 0067  02.08.2006

@<TRIPOS>MOLECULE
ASD01811064
  42   45    0    0    0
SMALL
NO_CHARGES


@<TRIPOS>ATOM
   1 C1            -0.0166     1.3739     0.0096 C.2     
   2 C2             0.0021    -0.0041     0.0020 C.2     
   3 C3            -1.2474    -0.8533    -0.0009 C.3     
   4 C4            -2.4587    -0.0417     0.3376 C.2     
   5 C5            -2.5087     1.2952     0.3491 C.2     
   6 C6            -1.3094     2.1088     0.0336 C.2     
   7 C7            -1.4300    -1.4706    -1.3889 C.3     
   8 C8            -2.6036    -2.4158    -1.3678 C.ar    
   9 C9            -3.8712    -1.9471    -1.6626 C.ar    
  10 C10           -4.9495    -2.8084    -1.6448 C.ar    
  11 C11           -4.7595    -4.1521    -1.3291 C.ar    
  12 C12           -3.4804    -4.6188    -1.0330 C.ar    
  13 C13           -2.4083    -3.7499    -1.0593 C.ar    
  14 C14           -5.9151    -5.0827    -1.3079 C.ar    
  15 C15           -5.7251    -6.4265    -0.9922 C.ar    
  16 C16           -6.8035    -7.2876    -0.9740 C.ar    
  17 C17           -8.0711    -6.8190    -1.2688 C.ar    
  18 C18           -8.2654    -5.4861    -1.5833 C.ar    
  19 C19           -7.1951    -4.6148    -1.5980 C.ar    
  20 O20           -1.3787     3.3025    -0.1907 O.2     
  21 C21           -3.7776     1.9713     0.6812 C.2     
  22 O22           -4.7660     1.3144     0.9412 O.2     
  23 O23           -3.8401     3.3171     0.6959 O.3     
  24 C24            1.3032     1.9523     0.0001 C.2     
  25 C25            2.2730     1.0476    -0.0081 C.2     
  26 S26            1.6072    -0.5753    -0.0058 S.3     
  27 H27           -1.1372    -1.6525     0.7321 H       
  28 H28           -3.3620    -0.5765     0.5918 H       
  29 H29           -1.6131    -0.6802    -2.1168 H       
  30 H30           -0.5283    -2.0171    -1.6650 H       
  31 H31           -4.0174    -0.9053    -1.9068 H       
  32 H32           -5.9389    -2.4413    -1.8748 H       
  33 H33           -3.3275    -5.6594    -0.7876 H       
  34 H34           -1.4165    -4.1105    -0.8299 H       
  35 H35           -4.7357    -6.7936    -0.7625 H       
  36 H36           -6.6573    -8.3294    -0.7294 H       
  37 H37           -8.9121    -7.4964    -1.2537 H       
  38 H38           -9.2572    -5.1256    -1.8131 H       
  39 H39           -7.3480    -3.5742    -1.8434 H       
  40 H40           -4.6929     3.7145     0.9192 H       
  41 H41            1.4847     3.0170    -0.0009 H       
  42 H42            3.3281     1.2784    -0.0155 H       
@<TRIPOS>BOND
   1    1    2 2
   2    1   24 1
   3    1    6 1
   4    2    3 1
   5    2   26 1
   6    3    4 1
   7    3    7 1
   8    3   27 1
   9    4    5 2
  10    4   28 1
  11    5    6 1
  12    5   21 1
  13    6   20 2
  14    7    8 1
  15    7   29 1
  16    7   30 1
  17    8    9 ar
  18    8   13 ar
  19    9   10 ar
  20    9   31 1
  21   10   11 ar
  22   10   32 1
  23   11   12 ar
  24   11   14 1
  25   12   13 ar
  26   12   33 1
  27   13   34 1
  28   14   15 ar
  29   14   19 ar
  30   15   16 ar
  31   15   35 1
  32   16   17 ar
  33   16   36 1
  34   17   18 ar
  35   17   37 1
  36   18   19 ar
  37   18   38 1
  38   19   39 1
  39   21   22 2
  40   21   23 1
  41   23   40 1
  42   24   25 2
  43   24   41 1
  44   25   26 1
  45   25   42 1

#	End of record

