#	Name: ASD01820186
#	Creating user name:	WinNT
#	Creation time:	15. 06. 2019 19:36

#	Modifying user name:	WinNT
#	Modification time:	15. 06. 2019 19:36

#	Program:	/corina/corina34_cracker 3.40 0067  02.08.2006

@<TRIPOS>MOLECULE
ASD01820186
  96   99    0    0    0
SMALL
NO_CHARGES


@<TRIPOS>ATOM
   1 C1            -0.8882     0.3917    -2.1293 C.ar    
   2 C2            -0.7894    -0.7808    -1.3527 C.ar    
   3 C3            -2.1635    -1.0820    -0.8986 C.2     
   4 N4            -2.9919    -0.1408    -1.3858 N.am    
   5 C5            -2.3181     0.7660    -2.1162 C.2     
   6 C6            -4.4370    -0.1049    -1.1479 C.3     
   7 C7            -4.7258     0.7081     0.1157 C.3     
   8 C8            -6.2350     0.7455     0.3642 C.3     
   9 N9            -6.4907     1.0090     1.7866 N.4     
  10 C10           -7.9289     1.2250     1.9938 C.3     
  11 C11           -8.1951     1.4995     3.4753 C.3     
  12 C12           -9.6930     1.7244     3.6911 C.3     
  13 C13           -9.9593     1.9989     5.1725 C.3     
  14 C14          -11.4572     2.2239     5.3883 C.3     
  15 C15          -11.7235     2.4983     6.8698 C.3     
  16 N16          -13.1616     2.7143     7.0770 N.4     
  17 C17          -13.4173     2.9778     8.4994 C.3     
  18 C18          -14.9152     3.2028     8.7152 C.3     
  19 N19          -16.6157     3.6927    10.4033 N.am    
  20 O20           -2.8044     1.7270    -2.6774 O.2     
  21 O21           -2.4900    -2.0222    -0.2026 O.2     
  22 C22          -15.1814     3.4772    10.1966 C.3     
  23 C23          -17.4985     2.7182    10.6876 C.2     
  24 C24          -18.8403     3.3233    10.8237 C.ar    
  25 C25          -18.6653     4.7040    10.5987 C.ar    
  26 C26          -17.2222     4.8917    10.3394 C.2     
  27 C27          -20.1023     2.8254    11.1035 C.ar    
  28 C28          -21.1851     3.6896    11.1603 C.ar    
  29 C29          -21.0137     5.0428    10.9394 C.ar    
  30 C30          -19.7563     5.5555    10.6590 C.ar    
  31 O31          -17.2369     1.5388    10.8114 O.2     
  32 O32          -16.6766     5.9503    10.1012 O.2     
  33 C33          -13.6040     3.8653     6.2786 C.3     
  34 C34          -13.9018     1.5158     6.6603 C.3     
  35 C35           -6.0484    -0.1420     2.5850 C.3     
  36 C36           -5.7505     2.2075     2.2033 C.3     
  37 C37            0.2490     0.9352    -2.7039 C.ar    
  38 C38            1.4772     0.3214    -2.5109 C.ar    
  39 C39            1.5740    -0.8278    -1.7497 C.ar    
  40 C40            0.4444    -1.3830    -1.1682 C.ar    
  41 C41            2.7151     0.9114    -3.1359 C.3     
  42 C42          -22.2016     5.9679    11.0039 C.3     
  43 C43           -4.0280     0.0570     1.3116 C.3     
  44 C44           -4.2032     2.1346    -0.0651 C.3     
  45 H45           -4.9342     0.3589    -1.9998 H       
  46 H46           -4.8094    -1.1212    -1.0190 H       
  47 H47           -6.6829     1.5360    -0.2380 H       
  48 H48           -6.6727    -0.2138     0.0880 H       
  49 H49           -8.2571     2.0791     1.4014 H       
  50 H50           -8.4781     0.3357     1.6846 H       
  51 H51           -7.8669     0.6454     4.0677 H       
  52 H52           -7.6459     2.3888     3.7845 H       
  53 H53          -10.0212     2.5785     3.0986 H       
  54 H54          -10.2423     0.8352     3.3819 H       
  55 H55           -9.6311     1.1448     5.7650 H       
  56 H56           -9.4101     2.8882     5.4817 H       
  57 H57          -11.7854     3.0779     4.7959 H       
  58 H58          -12.0064     1.3346     5.0791 H       
  59 H59          -11.3952     1.6443     7.4622 H       
  60 H60          -11.1742     3.3876     7.1790 H       
  61 H61          -13.0891     2.1238     9.0918 H       
  62 H62          -12.8680     3.8671     8.8086 H       
  63 H63          -15.2434     4.0568     8.1228 H       
  64 H64          -15.4644     2.3135     8.4060 H       
  65 H65          -14.8532     2.6232    10.7891 H       
  66 H66          -14.6322     4.3665    10.5059 H       
  67 H67          -20.2423     1.7685    11.2763 H       
  68 H68          -22.1695     3.3023    11.3784 H       
  69 H69          -19.6282     6.6140    10.4870 H       
  70 H70          -13.4143     3.6698     5.2231 H       
  71 H71          -14.6711     4.0256     6.4323 H       
  72 H72          -13.0547     4.7546     6.5878 H       
  73 H73          -13.5736     0.6618     7.2527 H       
  74 H74          -14.9690     1.6761     6.8140 H       
  75 H75          -13.7122     1.3203     5.6049 H       
  76 H76           -5.0058    -0.0057     2.8725 H       
  77 H77           -6.6647    -0.2214     3.4805 H       
  78 H78           -6.1463    -1.0529     1.9946 H       
  79 H79           -5.7488     2.9343     1.3910 H       
  80 H80           -6.2292     2.6437     3.0801 H       
  81 H81           -4.7242     1.9339     2.4482 H       
  82 H82            0.1792     1.8330    -3.3001 H       
  83 H83            2.5363    -1.2969    -1.6069 H       
  84 H84            0.5260    -2.2814    -0.5744 H       
  85 H85            3.1663     1.6241    -2.4455 H       
  86 H86            3.4271     0.1153    -3.3532 H       
  87 H87            2.4470     1.4217    -4.0611 H       
  88 H88          -22.3221     6.3339    12.0236 H       
  89 H89          -22.0425     6.8111    10.3317 H       
  90 H90          -23.0994     5.4279    10.7032 H       
  91 H91           -2.9846    -0.1361     1.0625 H       
  92 H92           -4.0787     0.7263     2.1704 H       
  93 H93           -4.5237    -0.8830     1.5539 H       
  94 H94           -4.8408     2.6686    -0.7697 H       
  95 H95           -4.2124     2.6495     0.8956 H       
  96 H96           -3.1839     2.1021    -0.4501 H       
@<TRIPOS>BOND
   1    1    2 ar
   2    1   37 ar
   3    1    5 1
   4    2    3 1
   5    2   40 ar
   6    3    4 am
   7    3   21 2
   8    4    5 am
   9    4    6 1
  10    5   20 2
  11    6    7 1
  12    6   45 1
  13    6   46 1
  14    7    8 1
  15    7   43 1
  16    7   44 1
  17    8    9 1
  18    8   47 1
  19    8   48 1
  20    9   10 1
  21    9   35 1
  22    9   36 1
  23   10   11 1
  24   10   49 1
  25   10   50 1
  26   11   12 1
  27   11   51 1
  28   11   52 1
  29   12   13 1
  30   12   53 1
  31   12   54 1
  32   13   14 1
  33   13   55 1
  34   13   56 1
  35   14   15 1
  36   14   57 1
  37   14   58 1
  38   15   16 1
  39   15   59 1
  40   15   60 1
  41   16   17 1
  42   16   33 1
  43   16   34 1
  44   17   18 1
  45   17   61 1
  46   17   62 1
  47   18   22 1
  48   18   63 1
  49   18   64 1
  50   19   23 am
  51   19   22 1
  52   19   26 am
  53   22   65 1
  54   22   66 1
  55   23   24 1
  56   23   31 2
  57   24   25 ar
  58   24   27 ar
  59   25   26 1
  60   25   30 ar
  61   26   32 2
  62   27   28 ar
  63   27   67 1
  64   28   29 ar
  65   28   68 1
  66   29   30 ar
  67   29   42 1
  68   30   69 1
  69   33   70 1
  70   33   71 1
  71   33   72 1
  72   34   73 1
  73   34   74 1
  74   34   75 1
  75   35   76 1
  76   35   77 1
  77   35   78 1
  78   36   79 1
  79   36   80 1
  80   36   81 1
  81   37   38 ar
  82   37   82 1
  83   38   39 ar
  84   38   41 1
  85   39   40 ar
  86   39   83 1
  87   40   84 1
  88   41   85 1
  89   41   86 1
  90   41   87 1
  91   42   88 1
  92   42   89 1
  93   42   90 1
  94   43   91 1
  95   43   92 1
  96   43   93 1
  97   44   94 1
  98   44   95 1
  99   44   96 1

#	End of record

