#	Name: ASD05313202
#	Creating user name:	WinNT
#	Creation time:	15. 06. 2019 20:58

#	Modifying user name:	WinNT
#	Modification time:	15. 06. 2019 20:58

#	Program:	/corina/corina34_cracker 3.40 0067  02.08.2006

@<TRIPOS>MOLECULE
ASD05313202
  38   41    0    0    0
SMALL
NO_CHARGES


@<TRIPOS>ATOM
   1 C1            -0.0627     0.8475     0.9874 C.2     
   2 C2             0.1146    -0.5949     0.5765 C.3     
   3 N3             0.9480     1.7533     1.0102 N.pl3   
   4 N4             1.4607    -0.7113    -0.0156 N.am    
   5 C5             2.5764    -0.0317     0.6602 C.3     
   6 C6             2.3348     1.4823     0.6357 C.3     
   7 N7            -0.8855     2.6843     1.6468 N.2     
   8 N8            -1.1452     1.4512     1.3765 N.2     
   9 C9             0.3955     2.9234     1.4391 C.2     
  10 S10            0.3479     5.7016     2.1920 S.3     
  11 C11            1.0939     4.2057     1.6354 C.2     
  12 N12            2.3634     4.4160     1.4252 N.2     
  13 C13            2.8134     5.6265     1.6545 C.2     
  14 C14            1.9078     6.5146     2.0820 C.2     
  15 C15            1.6626    -1.4205    -1.1437 C.2     
  16 O16            2.7579    -1.4251    -1.6710 O.2     
  17 C17            0.5528    -2.1924    -1.7395 C.ar    
  18 C18            0.3194    -2.1360    -3.1154 C.ar    
  19 C19           -0.7182    -2.8587    -3.6662 C.ar    
  20 C20           -1.5294    -3.6401    -2.8554 C.ar    
  21 C21           -1.3013    -3.6990    -1.4896 C.ar    
  22 C22           -0.2629    -2.9853    -0.9299 C.ar    
  23 C23            1.1992    -1.2868    -3.9962 C.3     
  24 F24           -2.5451    -4.3456    -3.3993 F       
  25 Cl25          -1.0103    -2.7902    -5.3761 Cl      
  26 H26            0.0349    -1.2429     1.4493 H       
  27 H27           -0.6408    -0.8673    -0.1605 H       
  28 H28            2.6387    -0.3737     1.6933 H       
  29 H29            3.5085    -0.2601     0.1435 H       
  30 H30            2.5226     1.8648    -0.3675 H       
  31 H31            3.0052     1.9697     1.3437 H       
  32 H32            3.8503     5.8903     1.5077 H       
  33 H33            2.0997     7.5508     2.3183 H       
  34 H34           -1.9357    -4.3084    -0.8630 H       
  35 H35           -0.0836    -3.0356     0.1340 H       
  36 H36            2.0893    -1.8517    -4.2733 H       
  37 H37            0.6512    -1.0078    -4.8962 H       
  38 H38            1.4935    -0.3869    -3.4563 H       
@<TRIPOS>BOND
   1    1    2 1
   2    1    3 1
   3    1    8 2
   4    2    4 1
   5    2   26 1
   6    2   27 1
   7    3    6 1
   8    3    9 1
   9    4    5 1
  10    4   15 am
  11    5    6 1
  12    5   28 1
  13    5   29 1
  14    6   30 1
  15    6   31 1
  16    7    8 1
  17    7    9 2
  18    9   11 1
  19   10   11 1
  20   10   14 1
  21   11   12 2
  22   12   13 1
  23   13   14 2
  24   13   32 1
  25   14   33 1
  26   15   16 2
  27   15   17 1
  28   17   18 ar
  29   17   22 ar
  30   18   19 ar
  31   18   23 1
  32   19   20 ar
  33   19   25 1
  34   20   21 ar
  35   20   24 1
  36   21   22 ar
  37   21   34 1
  38   22   35 1
  39   23   36 1
  40   23   37 1
  41   23   38 1

#	End of record

