#	Name: ASD01811547
#	Creating user name:	WinNT
#	Creation time:	15. 06. 2019 19:26

#	Modifying user name:	WinNT
#	Modification time:	15. 06. 2019 19:26

#	Program:	/corina/corina34_cracker 3.40 0067  02.08.2006

@<TRIPOS>MOLECULE
ASD01811547
  77   81    0    0    0
SMALL
NO_CHARGES


@<TRIPOS>ATOM
   1 C1            -7.6554     2.4765    -4.1283 C.1     
   2 C2            -6.6453     3.2283    -3.4463 C.ar    
   3 C3            -5.4813     2.5976    -3.0023 C.ar    
   4 C4            -4.5124     3.3280    -2.3461 C.ar    
   5 C5            -4.6920     4.6823    -2.1271 C.ar    
   6 C6            -5.8432     5.3135    -2.5640 C.ar    
   7 C7            -6.8172     4.5966    -3.2275 C.ar    
   8 N8            -8.4567     1.8800    -4.6692 N.1     
   9 N9            -2.5321     7.8387    -0.3126 N.am    
  10 C10           -2.0132     7.3681    -1.6041 C.3     
  11 C11           -3.1174     6.5879    -2.3244 C.3     
  12 C12           -3.6293     5.4734    -1.4090 C.3     
  13 C13           -4.2215     6.0866    -0.1380 C.3     
  14 C14           -3.1299     6.8611     0.6071 C.3     
  15 C15           -2.4562     9.1414     0.0245 C.2     
  16 C16           -3.0590     9.6142     1.2892 C.ar    
  17 C17           -3.9987    10.6476     1.2735 C.ar    
  18 C18           -4.5622    11.0900     2.4535 C.ar    
  19 C19           -4.2016    10.5150     3.6563 C.ar    
  20 C20           -3.2636     9.4814     3.6862 C.ar    
  21 C21           -2.6952     9.0261     2.4986 C.ar    
  22 O22           -1.8923     9.9277    -0.7112 O.2     
  23 C23           -4.8217    11.0048     4.9395 C.3     
  24 C24           -4.3977    11.2812    -0.0343 C.3     
  25 C25           -0.9828     6.6716     7.2213 C.3     
  26 C26           -1.8718     7.6369     6.4811 C.2     
  27 C27           -2.8225     8.3942     7.0797 C.2     
  28 C28           -3.0967     8.3464     8.5637 C.3     
  29 C29           -2.4428     7.0753     9.1227 C.3     
  30 N30           -1.0514     6.9893     8.6582 N.3     
  31 C31           -2.8783     8.8671     4.9756 C.2     
  32 N32           -1.9012     7.9274     5.1533 N.pl3   
  33 N33           -3.4184     9.1328     6.1475 N.2     
  34 C34           -2.4952     9.5792     9.2413 C.3     
  35 C35           -4.6061     8.3035     8.8102 C.3     
  36 C36           -0.2914     6.0129     9.4500 C.3     
  37 C37            1.1525     5.9612     8.9466 C.3     
  38 C38           -0.3036     6.4299    10.9220 C.3     
  39 H39           -5.3402     1.5404    -3.1720 H       
  40 H40           -3.6116     2.8414    -2.0021 H       
  41 H41           -5.9772     6.3708    -2.3894 H       
  42 H42           -7.7131     5.0915    -3.5723 H       
  43 H43           -1.7142     8.2227    -2.2110 H       
  44 H44           -1.1548     6.7172    -1.4378 H       
  45 H45           -3.9378     7.2620    -2.5707 H       
  46 H46           -2.7169     6.1518    -3.2396 H       
  47 H47           -2.8032     4.8139    -1.1429 H       
  48 H48           -5.0315     6.7654    -0.4049 H       
  49 H49           -4.6070     5.2937     0.5030 H       
  50 H50           -2.3626     6.1689     0.9537 H       
  51 H51           -3.5676     7.3812     1.4591 H       
  52 H52           -5.2880    11.8895     2.4360 H       
  53 H53           -1.9724     8.2238     2.5159 H       
  54 H54           -5.6667    10.3679     5.2010 H       
  55 H55           -4.0802    10.9704     5.7377 H       
  56 H56           -5.1667    12.0304     4.8080 H       
  57 H57           -5.1885    10.6911    -0.4975 H       
  58 H58           -4.7588    12.2934     0.1476 H       
  59 H59           -3.5345    11.3172    -0.6989 H       
  60 H60           -1.3281     5.6515     7.0536 H       
  61 H61            0.0441     6.7749     6.8707 H       
  62 H62           -2.4602     7.1075    10.2121 H       
  63 H63           -2.9951     6.2013     8.7774 H       
  64 H64           -1.3372     7.5422     4.4645 H       
  65 H65           -2.9428    10.4797     8.8208 H       
  66 H66           -2.6960     9.5396    10.3119 H       
  67 H67           -1.4182     9.5966     9.0741 H       
  68 H68           -5.0265     7.4161     8.3371 H       
  69 H69           -4.7983     8.2691     9.8826 H       
  70 H70           -5.0689     9.1948     8.3865 H       
  71 H71           -0.7474     5.0282     9.3475 H       
  72 H72            1.6085     6.9459     9.0491 H       
  73 H73            1.7164     5.2367     9.5341 H       
  74 H74            1.1612     5.6641     7.8979 H       
  75 H75           -1.3323     6.4667    11.2807 H       
  76 H76            0.2603     5.7054    11.5096 H       
  77 H77            0.1524     7.4146    11.0245 H       
@<TRIPOS>BOND
   1    1    2 1
   2    1    8 3
   3    2    3 ar
   4    2    7 ar
   5    3    4 ar
   6    3   39 1
   7    4    5 ar
   8    4   40 1
   9    5    6 ar
  10    5   12 1
  11    6    7 ar
  12    6   41 1
  13    7   42 1
  14    9   10 1
  15    9   14 1
  16    9   15 am
  17   10   11 1
  18   10   43 1
  19   10   44 1
  20   11   12 1
  21   11   45 1
  22   11   46 1
  23   12   13 1
  24   12   47 1
  25   13   14 1
  26   13   48 1
  27   13   49 1
  28   14   50 1
  29   14   51 1
  30   15   16 1
  31   15   22 2
  32   16   17 ar
  33   16   21 ar
  34   17   18 ar
  35   17   24 1
  36   18   19 ar
  37   18   52 1
  38   19   20 ar
  39   19   23 1
  40   20   21 ar
  41   20   31 1
  42   21   53 1
  43   23   54 1
  44   23   55 1
  45   23   56 1
  46   24   57 1
  47   24   58 1
  48   24   59 1
  49   25   26 1
  50   25   30 1
  51   25   60 1
  52   25   61 1
  53   26   27 2
  54   26   32 1
  55   27   28 1
  56   27   33 1
  57   28   29 1
  58   28   34 1
  59   28   35 1
  60   29   30 1
  61   29   62 1
  62   29   63 1
  63   30   36 1
  64   31   32 1
  65   31   33 2
  66   32   64 1
  67   34   65 1
  68   34   66 1
  69   34   67 1
  70   35   68 1
  71   35   69 1
  72   35   70 1
  73   36   37 1
  74   36   38 1
  75   36   71 1
  76   37   72 1
  77   37   73 1
  78   37   74 1
  79   38   75 1
  80   38   76 1
  81   38   77 1

#	End of record

