#	Name: ASD01912343
#	Creating user name:	WinNT
#	Creation time:	15. 06. 2019 19:59

#	Modifying user name:	WinNT
#	Modification time:	15. 06. 2019 19:59

#	Program:	/corina/corina34_cracker 3.40 0067  02.08.2006

@<TRIPOS>MOLECULE
ASD01912343
  50   53    0    0    0
SMALL
NO_CHARGES


@<TRIPOS>ATOM
   1 O1            -0.0358     1.4630     0.0710 O.3     
   2 C2            -1.0383     2.0655     0.8934 C.3     
   3 C3            -1.0606     3.5542     0.6568 C.2     
   4 N4             0.0811     4.1976     0.3292 N.am    
   5 C5             1.2615     3.4542     0.1819 C.ar    
   6 C6             1.1816     2.0654     0.0514 C.ar    
   7 C7             2.4908     4.0821     0.1650 C.ar    
   8 C8             3.6548     3.3222     0.0159 C.ar    
   9 C9             3.5680     1.9342    -0.1148 C.ar    
  10 C10            2.3371     1.3133    -0.0961 C.ar    
  11 O11           -2.0995     4.1717     0.7599 O.2     
  12 C12            4.9733     3.9856    -0.0037 C.2     
  13 O13            5.9020     3.5111     0.6213 O.2     
  14 N14            5.1478     5.1174    -0.7145 N.am    
  15 C15            6.4157     5.8544    -0.6381 C.3     
  16 C16            7.0034     5.9736    -2.0500 C.3     
  17 C17            5.9202     6.4785    -2.9777 C.2     
  18 C18            4.5995     5.7410    -3.0102 C.3     
  19 C19            4.0743     5.6244    -1.5789 C.3     
  20 C20            6.1241     7.5469    -3.7472 C.2     
  21 C21            5.0868     8.0099    -4.6190 C.1     
  22 C22            4.2364     8.3895    -5.3338 C.1     
  23 C23            3.1990     8.8526    -6.2057 C.ar    
  24 C24            3.4183     9.9741    -7.0109 C.ar    
  25 C25            2.4062    10.4080    -7.8471 C.ar    
  26 C26            1.2059     9.7095    -7.8543 C.ar    
  27 C27            1.0555     8.6077    -7.0322 C.ar    
  28 N28            2.0357     8.2094    -6.2477 N.ar    
  29 C29           -0.2461     7.8483    -7.0385 C.3     
  30 H30           -2.0125     1.6441     0.6454 H       
  31 H31           -0.8144     1.8681     1.9417 H       
  32 H32            0.0846     5.1586     0.1975 H       
  33 H33            2.5530     5.1556     0.2660 H       
  34 H34            4.4667     1.3464    -0.2303 H       
  35 H35            2.2728     0.2400    -0.1973 H       
  36 H36            6.2358     6.8498    -0.2319 H       
  37 H37            7.1131     5.3162     0.0038 H       
  38 H38            7.8369     6.6760    -2.0424 H       
  39 H39            7.3493     4.9965    -2.3871 H       
  40 H40            3.8855     6.2936    -3.6209 H       
  41 H41            4.7458     4.7446    -3.4271 H       
  42 H42            3.2305     4.9347    -1.5564 H       
  43 H43            3.7559     6.6062    -1.2285 H       
  44 H44            7.0718     8.0637    -3.7133 H       
  45 H45            4.3643    10.4942    -6.9800 H       
  46 H46            2.5459    11.2716    -8.4805 H       
  47 H47            0.3965    10.0243    -8.4964 H       
  48 H48           -0.2022     7.0582    -7.7881 H       
  49 H49           -0.4146     7.4079    -6.0558 H       
  50 H50           -1.0631     8.5296    -7.2762 H       
@<TRIPOS>BOND
   1    1    2 1
   2    1    6 1
   3    2    3 1
   4    2   30 1
   5    2   31 1
   6    3    4 am
   7    3   11 2
   8    4    5 1
   9    4   32 1
  10    5    6 ar
  11    5    7 ar
  12    6   10 ar
  13    7    8 ar
  14    7   33 1
  15    8    9 ar
  16    8   12 1
  17    9   10 ar
  18    9   34 1
  19   10   35 1
  20   12   13 2
  21   12   14 am
  22   14   15 1
  23   14   19 1
  24   15   16 1
  25   15   36 1
  26   15   37 1
  27   16   17 1
  28   16   38 1
  29   16   39 1
  30   17   18 1
  31   17   20 2
  32   18   19 1
  33   18   40 1
  34   18   41 1
  35   19   42 1
  36   19   43 1
  37   20   21 1
  38   20   44 1
  39   21   22 3
  40   22   23 1
  41   23   24 ar
  42   23   28 ar
  43   24   25 ar
  44   24   45 1
  45   25   26 ar
  46   25   46 1
  47   26   27 ar
  48   26   47 1
  49   27   28 ar
  50   27   29 1
  51   29   48 1
  52   29   49 1
  53   29   50 1

#	End of record

