#	Name: ASD01811899
#	Creating user name:	WinNT
#	Creation time:	15. 06. 2019 19:27

#	Modifying user name:	WinNT
#	Modification time:	15. 06. 2019 19:27

#	Program:	/corina/corina34_cracker 3.40 0067  02.08.2006

@<TRIPOS>MOLECULE
ASD01811899
  63   67    0    0    0
SMALL
NO_CHARGES


@<TRIPOS>ATOM
   1 C1            -0.0168     1.3869     0.0097 C.ar    
   2 C2             0.0021    -0.0041     0.0020 C.ar    
   3 C3             1.1801    -0.6897    -0.0129 C.ar    
   4 C4             2.3948     0.0129    -0.0207 C.ar    
   5 C5             2.3717     1.4290    -0.0129 C.ar    
   6 C6             1.1455     2.1015     0.0024 C.ar    
   7 C7             3.6293    -0.6694    -0.0365 C.ar    
   8 C8             4.8031     0.0063    -0.0446 C.ar    
   9 C9             4.8359     1.4095    -0.0374 C.ar    
  10 C10            3.6406     2.1511    -0.0211 C.ar    
  11 C11            6.1026     2.1526    -0.0470 C.2     
  12 N12            6.0328     3.5041    -0.0399 N.am    
  13 C13            4.8302     4.1313    -0.0241 C.2     
  14 N14            3.6961     3.4935    -0.0158 N.2     
  15 O15            7.1745     1.5748    -0.0604 O.2     
  16 C16            3.6424    -2.1763    -0.0442 C.3     
  17 C17            3.5087    -2.6726    -1.4608 C.ar    
  18 C18            4.6388    -2.8893    -2.2269 C.ar    
  19 C19            4.5161    -3.3445    -3.5263 C.ar    
  20 C20            3.2633    -3.5835    -4.0596 C.ar    
  21 C21            2.1333    -3.3672    -3.2934 C.ar    
  22 C22            2.2561    -2.9166    -1.9924 C.ar    
  23 C23            7.2655     4.2957    -0.0490 C.3     
  24 C24            7.3196     5.1740     1.2048 C.3     
  25 C25            8.5708     6.0543     1.1481 C.3     
  26 O26            8.5445     6.8410    -0.0446 O.3     
  27 C27            8.5410     6.0734    -1.2500 C.3     
  28 C28            7.2886     5.1938    -1.2896 C.3     
  29 O29            7.3717     4.3444     2.3672 O.3     
  30 Si30           3.0975    -4.1980    -5.8158 Si      
  31 C31            3.1146    -6.0609    -5.8261 C.3     
  32 C32            1.4925    -3.5877    -6.5384 C.3     
  33 C33            4.5201    -3.5584    -6.8345 C.3     
  34 H34           -0.9630     1.9076     0.0169 H       
  35 H35           -0.9305    -0.5488     0.0083 H       
  36 H36            1.1786    -1.7697    -0.0183 H       
  37 H37            1.1188     3.1811     0.0081 H       
  38 H38            5.7317    -0.5451    -0.0563 H       
  39 H39            4.8132     5.2111    -0.0182 H       
  40 H40            4.5813    -2.5336     0.3789 H       
  41 H41            2.8098    -2.5499     0.5518 H       
  42 H42            5.6175    -2.7026    -1.8102 H       
  43 H43            5.3990    -3.5131    -4.1251 H       
  44 H44            1.1545    -3.5536    -3.7102 H       
  45 H45            1.3732    -2.7476    -1.3937 H       
  46 H46            8.1281     3.6295    -0.0650 H       
  47 H47            6.4318     5.8051     1.2460 H       
  48 H48            8.5922     6.7121     2.0170 H       
  49 H49            9.4596     5.4232     1.1477 H       
  50 H50            8.5409     6.7448    -2.1086 H       
  51 H51            9.4294     5.4425    -1.2817 H       
  52 H52            7.3062     4.5752    -2.1869 H       
  53 H53            6.4002     5.8253    -1.2987 H       
  54 H54            7.4077     4.8353     3.1995 H       
  55 H55            2.2823    -6.4352    -5.2300 H       
  56 H56            3.0179    -6.4195    -6.8508 H       
  57 H57            4.0537    -6.4180    -5.4033 H       
  58 H58            1.4825    -2.4978    -6.5324 H       
  59 H59            1.3957    -3.9464    -7.5631 H       
  60 H60            0.6601    -3.9620    -5.9423 H       
  61 H61            5.4592    -3.9154    -6.4118 H       
  62 H62            4.4234    -3.9170    -7.8593 H       
  63 H63            4.5101    -2.4684    -6.8285 H       
@<TRIPOS>BOND
   1    1    2 ar
   2    1    6 ar
   3    1   34 1
   4    2    3 ar
   5    2   35 1
   6    3    4 ar
   7    3   36 1
   8    4    5 ar
   9    4    7 ar
  10    5    6 ar
  11    5   10 ar
  12    6   37 1
  13    7    8 ar
  14    7   16 1
  15    8    9 ar
  16    8   38 1
  17    9   10 ar
  18    9   11 1
  19   10   14 1
  20   11   12 am
  21   11   15 2
  22   12   13 1
  23   12   23 1
  24   13   14 2
  25   13   39 1
  26   16   17 1
  27   16   40 1
  28   16   41 1
  29   17   18 ar
  30   17   22 ar
  31   18   19 ar
  32   18   42 1
  33   19   20 ar
  34   19   43 1
  35   20   30 1
  36   20   21 ar
  37   21   22 ar
  38   21   44 1
  39   22   45 1
  40   23   24 1
  41   23   28 1
  42   23   46 1
  43   24   25 1
  44   24   29 1
  45   24   47 1
  46   25   26 1
  47   25   48 1
  48   25   49 1
  49   26   27 1
  50   27   28 1
  51   27   50 1
  52   27   51 1
  53   28   52 1
  54   28   53 1
  55   29   54 1
  56   30   31 1
  57   30   32 1
  58   30   33 1
  59   31   55 1
  60   31   56 1
  61   31   57 1
  62   32   58 1
  63   32   59 1
  64   32   60 1
  65   33   61 1
  66   33   62 1
  67   33   63 1

#	End of record

