#	Name: ASD01814531
#	Creating user name:	WinNT
#	Creation time:	15. 06. 2019 19:32

#	Modifying user name:	WinNT
#	Modification time:	15. 06. 2019 19:32

#	Program:	/corina/corina34_cracker 3.40 0067  02.08.2006

@<TRIPOS>MOLECULE
ASD01814531
  33   36    0    0    0
SMALL
NO_CHARGES


@<TRIPOS>ATOM
   1 C1            -0.0167     1.3838     0.0097 C.ar    
   2 C2             0.0021    -0.0041     0.0020 C.ar    
   3 C3            -1.1856    -0.7101     0.0095 C.ar    
   4 C4            -2.3929    -0.0367     0.0246 C.ar    
   5 C5            -2.4172     1.3462     0.0318 C.ar    
   6 C6            -1.2326     2.0594     0.0307 C.ar    
   7 F7            -1.2561     3.4102     0.0381 F       
   8 N8             1.1856     2.1023     0.0020 N.am    
   9 C9             1.8894     2.4229    -1.1028 C.2     
  10 N10            1.8312     2.5986     1.1376 N.2     
  11 C11            2.9282     3.2213     0.7922 C.2     
  12 C12            3.0275     3.1429    -0.6706 C.2     
  13 O13            1.5995     2.1445    -2.2561 O.2     
  14 N14            3.9108     3.8801     1.5208 N.pl3   
  15 C15            4.9693     4.4522     0.8826 C.2     
  16 C16            5.0876     4.3825    -0.5759 C.2     
  17 C17            4.1075     3.7249    -1.3266 C.2     
  18 C18            3.8030     3.9463     2.8666 C.2     
  19 C19            4.7402     4.5798     3.6135 C.2     
  20 C20            5.8408     5.1783     2.9935 C.2     
  21 C21            5.9546     5.1136     1.6209 C.2     
  22 C22            6.1918     4.9818    -1.2251 C.2     
  23 O23            6.2900     4.9241    -2.4344 O.2     
  24 H24            0.9444    -0.5317    -0.0101 H       
  25 H25           -1.1707    -1.7900     0.0032 H       
  26 H26           -3.3193    -0.5918     0.0304 H       
  27 H27           -3.3620     1.8693     0.0433 H       
  28 H28            4.1882     3.6697    -2.4021 H       
  29 H29            2.9560     3.4872     3.3548 H       
  30 H30            4.6364     4.6224     4.6877 H       
  31 H31            6.5917     5.6849     3.5816 H       
  32 H32            6.7967     5.5695     1.1214 H       
  33 H33            6.9478     5.4909    -0.6457 H       
@<TRIPOS>BOND
   1    1    2 ar
   2    1    8 1
   3    1    6 ar
   4    2    3 ar
   5    2   24 1
   6    3    4 ar
   7    3   25 1
   8    4    5 ar
   9    4   26 1
  10    5    6 ar
  11    5   27 1
  12    6    7 1
  13    8    9 am
  14    8   10 1
  15    9   13 2
  16    9   12 1
  17   10   11 2
  18   11   12 1
  19   11   14 1
  20   12   17 2
  21   14   15 1
  22   14   18 1
  23   15   16 2
  24   15   21 1
  25   16   17 1
  26   16   22 1
  27   17   28 1
  28   18   19 2
  29   18   29 1
  30   19   20 1
  31   19   30 1
  32   20   21 2
  33   20   31 1
  34   21   32 1
  35   22   23 2
  36   22   33 1

#	End of record

