#	Name: ASD00170942
#	Creating user name:	WinNT
#	Creation time:	15. 06. 2019 18:32

#	Modifying user name:	WinNT
#	Modification time:	15. 06. 2019 18:32

#	Program:	/corina/corina34_cracker 3.40 0067  02.08.2006

@<TRIPOS>MOLECULE
ASD00170942
  52   56    0    0    0
SMALL
NO_CHARGES


@<TRIPOS>ATOM
   1 C1           -12.0528    -1.9515    -1.0858 C.ar    
   2 C2           -12.0864    -2.1487     0.2849 C.ar    
   3 C3           -11.0340    -1.7287     1.0707 C.ar    
   4 C4            -9.9331    -1.1036     0.4822 C.ar    
   5 C5            -9.9049    -0.9076    -0.8997 C.ar    
   6 C6           -10.9609    -1.3366    -1.6759 C.ar    
   7 C7            -8.8015    -0.6505     1.3195 C.2     
   8 O8            -8.8664    -0.7419     2.5320 O.2     
   9 C9            -7.6043    -0.0924     0.6911 C.2     
  10 C10           -6.4796    -0.8930     0.2550 C.2     
  11 C11           -5.5075    -0.1757    -0.2864 C.2     
  12 S12           -5.9168     1.5303    -0.2929 S.3     
  13 C13           -7.4273     1.2494     0.4451 C.2     
  14 N14           -8.3432     2.2330     0.7589 N.pl3   
  15 C15           -6.4212    -2.3917     0.4026 C.3     
  16 N16           -6.1746    -2.7360     1.8092 N.3     
  17 Cl17         -13.3812    -2.4834    -2.0686 Cl      
  18 C18           -6.4776    -4.1539     2.0663 C.3     
  19 C19           -6.0948    -4.4734     3.4887 C.2     
  20 C20           -5.2883    -3.6916     4.2422 C.2     
  21 C21           -4.6803    -2.4072     3.7281 C.3     
  22 C22           -4.7965    -2.4058     2.1984 C.3     
  23 C23           -6.4753    -5.6042     4.3064 C.ar    
  24 C24           -5.8393    -5.4108     5.5604 C.ar    
  25 N25           -5.1325    -4.2445     5.4833 N.pl3   
  26 C26           -7.2801    -6.7225     4.0670 C.ar    
  27 C27           -7.4229    -7.6174     5.0983 C.ar    
  28 C28           -6.8044    -7.4331     6.3241 C.ar    
  29 C29           -6.0030    -6.3362     6.5890 C.ar    
  30 H30           -8.0375    -8.4929     4.9493 H       
  31 C31           -4.3291    -3.6723     6.5665 C.3     
  32 H32          -12.9388    -2.6321     0.7390 H       
  33 H33          -11.0615    -1.8827     2.1393 H       
  34 H34           -9.0561    -0.4242    -1.3605 H       
  35 H35          -10.9402    -1.1855    -2.7451 H       
  36 H36           -4.5860    -0.5857    -0.6724 H       
  37 H37           -8.1831     3.1498     0.4856 H       
  38 H38           -9.1471     2.0074     1.2527 H       
  39 H39           -7.3688    -2.8254     0.0831 H       
  40 H40           -5.6144    -2.7864    -0.2150 H       
  41 H41           -7.5436    -4.3321     1.9250 H       
  42 H42           -5.9046    -4.7807     1.3831 H       
  43 H43           -5.2197    -1.5539     4.1393 H       
  44 H44           -3.6308    -2.3547     4.0179 H       
  45 H45           -4.1142    -3.1468     1.7818 H       
  46 H46           -4.5377    -1.4186     1.8155 H       
  47 H47           -7.7669    -6.8750     3.1151 H       
  48 H48           -6.9529    -8.1701     7.0994 H       
  49 H49           -5.5262    -6.2039     7.5489 H       
  50 H50           -3.3089    -4.0504     6.5010 H       
  51 H51           -4.3204    -2.5860     6.4776 H       
  52 H52           -4.7603    -3.9547     7.5270 H       
@<TRIPOS>BOND
   1    1    2 ar
   2    1   17 1
   3    1    6 ar
   4    2    3 ar
   5    2   32 1
   6    3    4 ar
   7    3   33 1
   8    4    5 ar
   9    4    7 1
  10    5    6 ar
  11    5   34 1
  12    6   35 1
  13    7    8 2
  14    7    9 1
  15    9   10 1
  16    9   13 2
  17   10   11 2
  18   10   15 1
  19   11   12 1
  20   11   36 1
  21   12   13 1
  22   13   14 1
  23   14   37 1
  24   14   38 1
  25   15   16 1
  26   15   39 1
  27   15   40 1
  28   16   18 1
  29   16   22 1
  30   18   19 1
  31   18   41 1
  32   18   42 1
  33   19   23 1
  34   19   20 2
  35   20   21 1
  36   20   25 1
  37   21   22 1
  38   21   43 1
  39   21   44 1
  40   22   45 1
  41   22   46 1
  42   23   24 ar
  43   23   26 ar
  44   24   25 1
  45   24   29 ar
  46   25   31 1
  47   26   27 ar
  48   26   47 1
  49   27   28 ar
  50   27   30 1
  51   28   29 ar
  52   28   48 1
  53   29   49 1
  54   31   50 1
  55   31   51 1
  56   31   52 1

#	End of record

