#	Name: ASD01150076
#	Creating user name:	WinNT
#	Creation time:	15. 06. 2019 19:03

#	Modifying user name:	WinNT
#	Modification time:	15. 06. 2019 19:03

#	Program:	/corina/corina34_cracker 3.40 0067  02.08.2006

@<TRIPOS>MOLECULE
ASD01150076
  41   41    0    0    0
SMALL
NO_CHARGES


@<TRIPOS>ATOM
   1 C1             0.3073     1.6859     0.0789 C.2     
   2 C2             0.5334     0.3418    -0.1866 C.2     
   3 N3            -0.6486    -0.2110    -0.4836 N.2     
   4 C4            -1.5909     0.6932    -0.4214 C.2     
   5 N5            -1.0602     1.8787    -0.0738 N.pl3   
   6 C6            -1.7862     3.1390     0.1018 C.3     
   7 C7            -3.0520     0.4431    -0.6930 C.3     
   8 C8            -3.7525     0.0486     0.6087 C.3     
   9 C9             1.2698     2.6573     0.4371 C.2     
  10 O10            0.9110     3.9537     0.5495 O.3     
  11 N11            1.7584    -0.3079    -0.1510 N.pl3   
  12 O12            2.4223     2.3246     0.6443 O.2     
  13 C13            1.8381    -1.7384    -0.4573 C.3     
  14 C14            1.9350     4.8810     0.9149 C.3     
  15 C15            3.2915    -2.2033    -0.3471 C.3     
  16 C16            3.3747    -3.6972    -0.6669 C.3     
  17 C17           -1.5596     3.6646     1.5207 C.3     
  18 C18           -1.2760     4.1668    -0.9103 C.3     
  19 H19           -2.8512     2.9700    -0.0573 H       
  20 H20           -3.5079     1.3498    -1.0907 H       
  21 H21           -3.1537    -0.3633    -1.4193 H       
  22 H22           -4.8093    -0.1322     0.4122 H       
  23 H23           -3.2965    -0.8581     1.0063 H       
  24 H24           -3.6507     0.8551     1.3349 H       
  25 H25            2.5623     0.1848     0.0766 H       
  26 H26            1.2236    -2.2960     0.2495 H       
  27 H27            1.4763    -1.9137    -1.4704 H       
  28 H28            2.3450     4.6054     1.8865 H       
  29 H29            2.7276     4.8603     0.1669 H       
  30 H30            1.5135     5.8847     0.9699 H       
  31 H31            3.9060    -1.6457    -1.0539 H       
  32 H32            3.6533    -2.0280     0.6661 H       
  33 H33            2.7602    -4.2549     0.0399 H       
  34 H34            3.0130    -3.8726    -1.6801 H       
  35 H35            4.4102    -4.0285    -0.5884 H       
  36 H36           -0.4929     3.6579     1.7447 H       
  37 H37           -1.9402     4.6832     1.5959 H       
  38 H38           -2.0843     3.0272     2.2324 H       
  39 H39           -1.6593     5.1536    -0.6506 H       
  40 H40           -0.1863     4.1840    -0.8928 H       
  41 H41           -1.6191     3.8949    -1.9086 H       
@<TRIPOS>BOND
   1    1    2 2
   2    1    9 1
   3    1    5 1
   4    2    3 1
   5    2   11 1
   6    3    4 2
   7    4    5 1
   8    4    7 1
   9    5    6 1
  10    6   17 1
  11    6   18 1
  12    6   19 1
  13    7    8 1
  14    7   20 1
  15    7   21 1
  16    8   22 1
  17    8   23 1
  18    8   24 1
  19    9   10 1
  20    9   12 2
  21   10   14 1
  22   11   13 1
  23   11   25 1
  24   13   15 1
  25   13   26 1
  26   13   27 1
  27   14   28 1
  28   14   29 1
  29   14   30 1
  30   15   16 1
  31   15   31 1
  32   15   32 1
  33   16   33 1
  34   16   34 1
  35   16   35 1
  36   17   36 1
  37   17   37 1
  38   17   38 1
  39   18   39 1
  40   18   40 1
  41   18   41 1

#	End of record

