#	Name: ASD07930192
#	Creating user name:	WinNT
#	Creation time:	15. 06. 2019 21:11

#	Modifying user name:	WinNT
#	Modification time:	15. 06. 2019 21:11

#	Program:	/corina/corina34_cracker 3.40 0067  02.08.2006

@<TRIPOS>MOLECULE
ASD07930192
  57   61    0    0    0
SMALL
NO_CHARGES


@<TRIPOS>ATOM
   1 C1            -0.0180     1.4754     0.0102 C.2     
   2 C2             0.0021    -0.0041     0.0020 C.2     
   3 N3             1.1814     2.1509     0.0023 N.am    
   4 N4             1.1194    -0.6400     0.4288 N.am    
   5 C5             2.2493     0.1650     0.9143 C.3     
   6 C6             2.4261     1.3707    -0.0208 C.3     
   7 C7            -1.2008     2.1485     0.0195 C.2     
   8 C8            -1.2247     3.5486     0.0291 C.2     
   9 C9            -0.0458     4.2425     0.0303 C.2     
  10 C10            1.2139     3.4948     0.0143 C.2     
  11 O11           -0.9642    -0.6358    -0.3794 O.2     
  12 O12            2.2807     4.0852     0.0118 O.2     
  13 C13            1.2002    -2.1026     0.4064 C.3     
  14 C14            1.0276    -2.6010    -1.0298 C.3     
  15 O15           -0.2894    -2.2881    -1.4875 O.3     
  16 C16           -3.6185    -2.3674    -4.8631 C.3     
  17 C17           -3.9819    -1.3132    -3.7959 C.3     
  18 C18           -3.0573    -1.6987    -2.6217 C.3     
  19 C19           -1.8730    -2.3914    -3.2611 C.ar    
  20 C20           -0.6085    -2.6653    -2.7541 C.ar    
  21 C21            0.3281    -3.3216    -3.5366 C.ar    
  22 C22            0.0035    -3.7042    -4.8239 C.ar    
  23 C23           -1.2550    -3.4318    -5.3291 C.ar    
  24 C24           -2.1952    -2.7755    -4.5483 C.ar    
  25 F25           -1.5700    -3.8069    -6.5882 F       
  26 F26           -2.6381    -0.5528    -1.9375 F       
  27 F27           -3.7176    -2.5714    -1.7502 F       
  28 F28           -3.6935    -0.0229    -4.2531 F       
  29 F29           -5.3268    -1.4226    -3.4266 F       
  30 C30            0.0936    -2.6880     1.2859 C.3     
  31 C31            0.4239     6.4402     1.0348 C.2     
  32 N32            0.2552     7.6848     0.6804 N.2     
  33 C33           -0.3161     7.7283    -0.5326 C.2     
  34 C34           -0.5113     6.4636    -0.9513 C.2     
  35 N35           -0.0431     5.6402     0.0404 N.pl3   
  36 C36           -0.6774     8.9771    -1.2948 C.3     
  37 H37            2.0426     0.5136     1.9261 H       
  38 H38            3.1572    -0.4381     0.9099 H       
  39 H39            2.6247     1.0242    -1.0350 H       
  40 H40            3.2543     1.9881     0.3270 H       
  41 H41           -2.1297     1.5976     0.0190 H       
  42 H42           -2.1668     4.0767     0.0353 H       
  43 H43            2.1717    -2.4186     0.7864 H       
  44 H44            1.7609    -2.1153    -1.6736 H       
  45 H45            1.1759    -3.6804    -1.0601 H       
  46 H46           -4.2840    -3.2273    -4.7873 H       
  47 H47           -3.6751    -1.9312    -5.8604 H       
  48 H48            1.3105    -3.5333    -3.1409 H       
  49 H49            0.7322    -4.2155    -5.4355 H       
  50 H50            0.1537    -3.7762     1.2692 H       
  51 H51            0.2165    -2.3329     2.3091 H       
  52 H52           -0.8779    -2.3720     0.9059 H       
  53 H53            0.8650     6.1025     1.9610 H       
  54 H54           -0.9521     6.1566    -1.8883 H       
  55 H55            0.1651     9.2797    -1.9167 H       
  56 H56           -1.5430     8.7793    -1.9270 H       
  57 H57           -0.9156     9.7756    -0.5921 H       
@<TRIPOS>BOND
   1    1    2 1
   2    1    3 1
   3    1    7 2
   4    2    4 am
   5    2   11 2
   6    3    6 1
   7    3   10 am
   8    4    5 1
   9    4   13 1
  10    5    6 1
  11    5   37 1
  12    5   38 1
  13    6   39 1
  14    6   40 1
  15    7    8 1
  16    7   41 1
  17    8    9 2
  18    8   42 1
  19    9   10 1
  20    9   35 1
  21   10   12 2
  22   13   14 1
  23   13   30 1
  24   13   43 1
  25   14   15 1
  26   14   44 1
  27   14   45 1
  28   15   20 1
  29   16   17 1
  30   16   24 1
  31   16   46 1
  32   16   47 1
  33   17   18 1
  34   17   28 1
  35   17   29 1
  36   18   19 1
  37   18   26 1
  38   18   27 1
  39   19   20 ar
  40   19   24 ar
  41   20   21 ar
  42   21   22 ar
  43   21   48 1
  44   22   23 ar
  45   22   49 1
  46   23   24 ar
  47   23   25 1
  48   30   50 1
  49   30   51 1
  50   30   52 1
  51   31   32 2
  52   31   35 1
  53   31   53 1
  54   32   33 1
  55   33   34 2
  56   33   36 1
  57   34   35 1
  58   34   54 1
  59   36   55 1
  60   36   56 1
  61   36   57 1

#	End of record

