#	Name: ASD03082012
#	Creating user name:	WinNT
#	Creation time:	15. 06. 2019 20:27

#	Modifying user name:	WinNT
#	Modification time:	15. 06. 2019 20:27

#	Program:	/corina/corina34_cracker 3.40 0067  02.08.2006

@<TRIPOS>MOLECULE
ASD03082012
  49   52    0    0    0
SMALL
NO_CHARGES


@<TRIPOS>ATOM
   1 C1             0.2555     1.1400    -0.3451 C.3     
   2 N2             0.1036    -0.3144    -0.2054 N.3     
   3 C3             0.5880    -1.0180    -1.4005 C.3     
   4 C4             2.0895    -0.7612    -1.5669 C.3     
   5 N5             2.3180     0.6917    -1.5653 N.am    
   6 C6             1.7434     1.4853    -0.4683 C.3     
   7 S7             3.1992     1.4149    -2.7664 S.o2    
   8 C8            -1.2908    -0.6723     0.0873 C.3     
   9 C9            -2.1603    -0.3078    -1.0883 C.2     
  10 N10           -3.4632    -0.6527    -1.0954 N.am    
  11 O11           -1.6877     0.2960    -2.0282 O.2     
  12 C12           -4.2963    -0.2218    -2.1364 C.ar    
  13 C13           -5.3437    -1.0354    -2.5691 C.ar    
  14 C14           -6.1667    -0.6342    -3.5816 C.ar    
  15 C15           -5.9675     0.5994    -4.1960 C.ar    
  16 C16           -4.9136     1.4289    -3.7669 C.ar    
  17 C17           -4.0800     1.0083    -2.7249 C.ar    
  18 O18            4.0391     0.4062    -3.3108 O.2     
  19 C19            2.0706     1.8648    -4.0426 C.ar    
  20 O20            3.6961     2.6304    -2.2233 O.2     
  21 C21            1.4639     3.1068    -4.0218 C.ar    
  22 C22            0.5789     3.4609    -5.0224 C.ar    
  23 C23            0.3000     2.5712    -6.0460 C.ar    
  24 C24            0.9083     1.3276    -6.0658 C.ar    
  25 C25            1.7969     0.9777    -5.0669 C.ar    
  26 F26           -0.5653     2.9162    -7.0245 F       
  27 N27           -6.6058     1.2665    -5.2111 N.pl3   
  28 N28           -5.9698     2.4942    -5.4217 N.2     
  29 C29           -4.9721     2.6290    -4.5954 C.2     
  30 H30           -0.2711     1.4766    -1.2381 H       
  31 H31           -0.1614     1.6352     0.5319 H       
  32 H32            0.4121    -2.0880    -1.2889 H       
  33 H33            0.0567    -0.6514    -2.2788 H       
  34 H34            2.6330    -1.2183    -0.7400 H       
  35 H35            2.4309    -1.1845    -2.5115 H       
  36 H36            1.8561     2.5472    -0.6866 H       
  37 H37            2.2537     1.2442     0.4643 H       
  38 H38           -1.3597    -1.7444     0.2716 H       
  39 H39           -1.6275    -0.1295     0.9704 H       
  40 H40           -3.8242    -1.1991    -0.3799 H       
  41 H41           -5.5049    -1.9937    -2.0978 H       
  42 H42           -6.9732    -1.2747    -3.9068 H       
  43 H43           -3.2693     1.6376    -2.3885 H       
  44 H44            1.6813     3.8005    -3.2231 H       
  45 H45            0.1047     4.4311    -5.0058 H       
  46 H46            0.6914     0.6328    -6.8637 H       
  47 H47            2.2715     0.0076    -5.0821 H       
  48 H48           -7.3745     0.9390    -5.7037 H       
  49 H49           -4.3069     3.4776    -4.5341 H       
@<TRIPOS>BOND
   1    1    2 1
   2    1    6 1
   3    1   30 1
   4    1   31 1
   5    2    3 1
   6    2    8 1
   7    3    4 1
   8    3   32 1
   9    3   33 1
  10    4    5 1
  11    4   34 1
  12    4   35 1
  13    5    6 1
  14    5    7 am
  15    6   36 1
  16    6   37 1
  17    7   18 2
  18    7   19 1
  19    7   20 2
  20    8    9 1
  21    8   38 1
  22    8   39 1
  23    9   10 am
  24    9   11 2
  25   10   12 1
  26   10   40 1
  27   12   13 ar
  28   12   17 ar
  29   13   14 ar
  30   13   41 1
  31   14   15 ar
  32   14   42 1
  33   15   16 ar
  34   15   27 1
  35   16   17 ar
  36   16   29 1
  37   17   43 1
  38   19   21 ar
  39   19   25 ar
  40   21   22 ar
  41   21   44 1
  42   22   23 ar
  43   22   45 1
  44   23   24 ar
  45   23   26 1
  46   24   25 ar
  47   24   46 1
  48   25   47 1
  49   27   28 1
  50   27   48 1
  51   28   29 2
  52   29   49 1

#	End of record

