#	Name: ASD01410039
#	Creating user name:	WinNT
#	Creation time:	15. 06. 2019 19:16

#	Modifying user name:	WinNT
#	Modification time:	15. 06. 2019 19:16

#	Program:	/corina/corina34_cracker 3.40 0067  02.08.2006

@<TRIPOS>MOLECULE
ASD01410039
  36   37    0    0    0
SMALL
NO_CHARGES


@<TRIPOS>ATOM
   1 C1            -0.0269     1.4067    -0.0669 C.ar    
   2 C2            -0.0039     0.0235    -0.0690 C.ar    
   3 C3            -1.1889    -0.6881    -0.0482 C.ar    
   4 C4            -2.4016    -0.0137    -0.0252 C.ar    
   5 C5            -2.4217     1.3732    -0.0231 C.ar    
   6 C6            -1.2352     2.0806    -0.0386 C.ar    
   7 O7            -3.5681    -0.7114    -0.0051 O.3     
   8 C8            -4.7781     0.0484     0.0180 C.3     
   9 C9            -5.9589    -0.8878     0.0379 C.2     
  10 N10           -7.2118    -0.3919     0.0614 N.am    
  11 C11           -8.3030    -1.2519    -0.0334 C.ar    
  12 C12           -8.2264    -2.3917    -0.8218 C.ar    
  13 C13           -9.3094    -3.2430    -0.9145 C.ar    
  14 C14          -10.4786    -2.9682    -0.2242 C.ar    
  15 C15          -10.5734    -1.8413     0.5636 C.ar    
  16 C16           -9.4839    -0.9735     0.6724 C.ar    
  17 C17           -9.5782     0.2331     1.5134 C.2     
  18 O18          -10.7492     0.5592     2.0950 O.3     
  19 O19           -8.5999     0.9339     1.6823 O.2     
  20 O20           -5.7816    -2.0876     0.0328 O.2     
  21 Br21          -1.1575    -2.5789    -0.0517 Br      
  22 Cl22           1.4624     2.2984    -0.0924 Cl      
  23 C23           -1.2570     3.5874    -0.0363 C.3     
  24 H24            0.9402    -0.5006    -0.0873 H       
  25 H25           -3.3645     1.8998    -0.0052 H       
  26 H26           -4.7965     0.6754     0.9095 H       
  27 H27           -4.8288     0.6782    -0.8702 H       
  28 H28           -7.3536     0.5641     0.1444 H       
  29 H29           -7.3187    -2.6127    -1.3637 H       
  30 H30           -9.2447    -4.1286    -1.5293 H       
  31 H31          -11.3203    -3.6402    -0.3040 H       
  32 H32          -11.4874    -1.6315     1.0994 H       
  33 H33          -10.7620     1.3596     2.6375 H       
  34 H34           -1.2480     3.9494     0.9918 H       
  35 H35           -0.3796     3.9643    -0.5618 H       
  36 H36           -2.1592     3.9385    -0.5372 H       
@<TRIPOS>BOND
   1    1    2 ar
   2    1   22 1
   3    1    6 ar
   4    2    3 ar
   5    2   24 1
   6    3    4 ar
   7    3   21 1
   8    4    5 ar
   9    4    7 1
  10    5    6 ar
  11    5   25 1
  12    6   23 1
  13    7    8 1
  14    8    9 1
  15    8   26 1
  16    8   27 1
  17    9   10 am
  18    9   20 2
  19   10   11 1
  20   10   28 1
  21   11   12 ar
  22   11   16 ar
  23   12   13 ar
  24   12   29 1
  25   13   14 ar
  26   13   30 1
  27   14   15 ar
  28   14   31 1
  29   15   16 ar
  30   15   32 1
  31   16   17 1
  32   17   18 1
  33   17   19 2
  34   18   33 1
  35   23   34 1
  36   23   35 1
  37   23   36 1

#	End of record

