#	Name: ASD00170847
#	Creating user name:	WinNT
#	Creation time:	15. 06. 2019 18:32

#	Modifying user name:	WinNT
#	Modification time:	15. 06. 2019 18:32

#	Program:	/corina/corina34_cracker 3.40 0067  02.08.2006

@<TRIPOS>MOLECULE
ASD00170847
  52   54    0    0    0
SMALL
NO_CHARGES


@<TRIPOS>ATOM
   1 C1            -0.8066     0.0207     2.4018 C.ar    
   2 C2            -1.0594    -1.2640     1.9170 C.ar    
   3 C3            -1.5066    -2.2579     2.7896 C.ar    
   4 C4            -1.6961    -1.9658     4.1239 C.ar    
   5 C5            -1.4436    -0.6894     4.5989 C.ar    
   6 C6            -0.9997     0.3008     3.7381 C.ar    
   7 Cl7           -1.6845    -0.3293     6.2800 Cl      
   8 C8            -0.8547    -1.5706     0.4851 C.2     
   9 C9            -1.0150    -2.9422     0.0002 C.2     
  10 O10           -0.5527    -0.6820    -0.2907 O.2     
  11 C11           -2.2901    -3.5221    -0.3485 C.2     
  12 C12           -2.1911    -4.7898    -0.7677 C.2     
  13 S13           -0.5193    -5.3218    -0.7500 S.3     
  14 C14            0.0357    -3.8157    -0.1777 C.2     
  15 N15            1.3558    -3.5144     0.0791 N.pl3   
  16 C16           -3.3341    -5.6269    -1.1877 C.ar    
  17 C17           -3.5970    -2.7783    -0.2501 C.3     
  18 N18           -3.9718    -2.2692    -1.5761 N.3     
  19 C19           -3.2966    -6.3034    -2.4083 C.ar    
  20 C20           -4.3671    -7.0832    -2.7943 C.ar    
  21 C21           -5.4762    -7.1956    -1.9748 C.ar    
  22 C22           -5.5201    -6.5274    -0.7640 C.ar    
  23 C23           -4.4539    -5.7493    -0.3630 C.ar    
  24 C24           -5.3448    -1.7471    -1.5708 C.3     
  25 C25           -3.0217    -1.2472    -2.0354 C.3     
  26 O26           -1.8924    -1.8830    -2.6375 O.3     
  27 C27           -2.1233    -2.3340    -3.9737 C.3     
  28 O28           -5.8751    -1.7880    -2.8971 O.3     
  29 C29           -6.3455    -3.0772    -3.2955 C.3     
  30 H30           -0.4562     0.7924     1.7323 H       
  31 H31           -1.7041    -3.2534     2.4202 H       
  32 H32           -2.0424    -2.7337     4.7997 H       
  33 H33           -0.8045     1.2942     4.1142 H       
  34 H34            2.0503    -4.1574    -0.1333 H       
  35 H35            1.5905    -2.6593     0.4724 H       
  36 H36           -4.3726    -3.4528     0.1126 H       
  37 H37           -3.4887    -1.9435     0.4424 H       
  38 H38           -2.4316    -6.2163    -3.0491 H       
  39 H39           -4.3395    -7.6068    -3.7385 H       
  40 H40           -6.3116    -7.8074    -2.2818 H       
  41 H41           -6.3892    -6.6188    -0.1293 H       
  42 H42           -4.4892    -5.2285     0.5825 H       
  43 H43           -5.9633    -2.3579    -0.9132 H       
  44 H44           -5.3407    -0.7175    -1.2128 H       
  45 H45           -3.5080    -0.6016    -2.7667 H       
  46 H46           -2.6919    -0.6496    -1.1856 H       
  47 H47           -2.4728    -1.5006    -4.5832 H       
  48 H48           -1.1951    -2.7249    -4.3907 H       
  49 H49           -2.8779    -3.1204    -3.9664 H       
  50 H50           -5.5237    -3.7922    -3.2554 H       
  51 H51           -7.1397    -3.3984    -2.6215 H       
  52 H52           -6.7319    -3.0245    -4.3133 H       
@<TRIPOS>BOND
   1    1    2 ar
   2    1    6 ar
   3    1   30 1
   4    2    3 ar
   5    2    8 1
   6    3    4 ar
   7    3   31 1
   8    4    5 ar
   9    4   32 1
  10    5    6 ar
  11    5    7 1
  12    6   33 1
  13    8    9 1
  14    8   10 2
  15    9   11 1
  16    9   14 2
  17   11   12 2
  18   11   17 1
  19   12   13 1
  20   12   16 1
  21   13   14 1
  22   14   15 1
  23   15   34 1
  24   15   35 1
  25   16   19 ar
  26   16   23 ar
  27   17   18 1
  28   17   36 1
  29   17   37 1
  30   18   24 1
  31   18   25 1
  32   19   20 ar
  33   19   38 1
  34   20   21 ar
  35   20   39 1
  36   21   22 ar
  37   21   40 1
  38   22   23 ar
  39   22   41 1
  40   23   42 1
  41   24   28 1
  42   24   43 1
  43   24   44 1
  44   25   26 1
  45   25   45 1
  46   25   46 1
  47   26   27 1
  48   27   47 1
  49   27   48 1
  50   27   49 1
  51   28   29 1
  52   29   50 1
  53   29   51 1
  54   29   52 1

#	End of record

