#	Name: ASD02500177
#	Creating user name:	WinNT
#	Creation time:	15. 06. 2019 20:22

#	Modifying user name:	WinNT
#	Modification time:	15. 06. 2019 20:22

#	Program:	/corina/corina34_cracker 3.40 0067  02.08.2006

@<TRIPOS>MOLECULE
ASD02500177
  73   77    0    0    0
SMALL
NO_CHARGES


@<TRIPOS>ATOM
   1 N1            -0.1088     0.5950    -0.7086 N.am    
   2 C2             0.0191    -0.8581    -0.8869 C.3     
   3 C3             0.9465    -1.1259    -2.0788 C.3     
   4 N4             2.1660    -0.3224    -1.9146 N.am    
   5 C5             2.0382     1.1308    -1.7363 C.3     
   6 C6             1.1108     1.3985    -0.5444 C.3     
   7 C7            -1.3225     1.1811    -0.7013 C.2     
   8 O8            -2.3235     0.5070    -0.8430 O.2     
   9 O9            -1.4257     2.5134    -0.5370 O.3     
  10 C10            3.3800    -0.9078    -1.9270 C.2     
  11 C11            4.5993    -0.0784    -1.8855 C.ar    
  12 C12            5.6782    -0.4590    -1.0822 C.ar    
  13 C13            6.8142     0.3168    -1.0456 C.ar    
  14 C14            6.8896     1.4796    -1.8075 C.ar    
  15 C15            5.8166     1.8615    -2.6081 C.ar    
  16 C16            4.6803     1.0867    -2.6537 C.ar    
  17 O17            3.4702    -2.1196    -1.9723 O.2     
  18 S18            8.7080     2.8209    -3.1760 S.o2    
  19 O19            7.6609     3.4630    -3.8905 O.2     
  20 O20            9.9165     3.4748    -2.8137 O.2     
  21 N21            8.0389     2.2613    -1.7683 N.am    
  22 N22           10.7771     0.7539    -2.4901 N.ar    
  23 C23           11.7056    -0.0584    -2.0472 C.ar    
  24 C24           12.1021    -1.1822    -2.7691 C.ar    
  25 C25           11.5182    -1.4605    -3.9720 C.ar    
  26 C26           10.5210    -0.5863    -4.4444 C.ar    
  27 C27            9.8766    -0.8072    -5.6719 C.ar    
  28 C28            8.9172     0.0620    -6.0942 C.ar    
  29 C29            8.5655     1.1682    -5.3237 C.ar    
  30 C30            9.1705     1.4131    -4.1294 C.ar    
  31 C31           10.1659     0.5390    -3.6595 C.ar    
  32 C32           -2.7642     3.0761    -0.5397 C.3     
  33 C33           -2.6810     4.5910    -0.3417 C.3     
  34 C34           -4.0914     5.1839    -0.3445 C.3     
  35 C35           -4.0172     6.6779    -0.0228 C.3     
  36 C36           -5.4276     7.2708    -0.0256 C.3     
  37 C37           -6.0596     7.0771    -1.4054 C.3     
  38 C38           -6.1338     5.5831    -1.7271 C.3     
  39 C39           -4.7234     4.9902    -1.7243 C.3     
  40 H40            0.4438    -1.3013     0.0138 H       
  41 H41           -0.9622    -1.2904    -1.0826 H       
  42 H42            1.2068    -2.1839    -2.1093 H       
  43 H43            0.4441    -0.8434    -3.0039 H       
  44 H44            3.0195     1.5631    -1.5406 H       
  45 H45            1.6135     1.5739    -2.6370 H       
  46 H46            0.8505     2.4565    -0.5139 H       
  47 H47            1.6132     1.1160     0.3807 H       
  48 H48            5.6202    -1.3608    -0.4907 H       
  49 H49            7.6480     0.0235    -0.4250 H       
  50 H50            5.8779     2.7645    -3.1974 H       
  51 H51            3.8502     1.3808    -3.2789 H       
  52 H52            8.4487     2.4789    -0.9165 H       
  53 H53           12.1762     0.1492    -1.0975 H       
  54 H54           12.8706    -1.8324    -2.3781 H       
  55 H55           11.8135    -2.3271    -4.5450 H       
  56 H56           10.1404    -1.6613    -6.2778 H       
  57 H57            8.4219    -0.1087    -7.0387 H       
  58 H58            7.8020     1.8434    -5.6809 H       
  59 H59           -3.2472     2.8602    -1.4927 H       
  60 H60           -3.3453     2.6352     0.2703 H       
  61 H61           -2.1980     4.8068     0.6113 H       
  62 H62           -2.0999     5.0318    -1.1517 H       
  63 H63           -4.6989     4.6801     0.4073 H       
  64 H64           -3.5670     6.8159     0.9603 H       
  65 H65           -3.4098     7.1817    -0.7746 H       
  66 H66           -6.0351     6.7670     0.7263 H       
  67 H67           -5.3748     8.3351     0.2036 H       
  68 H68           -7.0644     7.4995    -1.4074 H       
  69 H69           -5.4522     7.5809    -2.1572 H       
  70 H70           -6.7413     5.0793    -0.9753 H       
  71 H71           -6.5840     5.4451    -2.7102 H       
  72 H72           -4.1159     5.4940    -2.4762 H       
  73 H73           -4.7763     3.9258    -1.9535 H       
@<TRIPOS>BOND
   1    1    2 1
   2    1    6 1
   3    1    7 am
   4    2    3 1
   5    2   40 1
   6    2   41 1
   7    3    4 1
   8    3   42 1
   9    3   43 1
  10    4    5 1
  11    4   10 am
  12    5    6 1
  13    5   44 1
  14    5   45 1
  15    6   46 1
  16    6   47 1
  17    7    8 2
  18    7    9 1
  19    9   32 1
  20   10   11 1
  21   10   17 2
  22   11   12 ar
  23   11   16 ar
  24   12   13 ar
  25   12   48 1
  26   13   14 ar
  27   13   49 1
  28   14   15 ar
  29   14   21 1
  30   15   16 ar
  31   15   50 1
  32   16   51 1
  33   18   19 2
  34   18   20 2
  35   18   21 am
  36   18   30 1
  37   21   52 1
  38   22   23 ar
  39   22   31 ar
  40   23   24 ar
  41   23   53 1
  42   24   25 ar
  43   24   54 1
  44   25   26 ar
  45   25   55 1
  46   26   27 ar
  47   26   31 ar
  48   27   28 ar
  49   27   56 1
  50   28   29 ar
  51   28   57 1
  52   29   30 ar
  53   29   58 1
  54   30   31 ar
  55   32   33 1
  56   32   59 1
  57   32   60 1
  58   33   34 1
  59   33   61 1
  60   33   62 1
  61   34   35 1
  62   34   39 1
  63   34   63 1
  64   35   36 1
  65   35   64 1
  66   35   65 1
  67   36   37 1
  68   36   66 1
  69   36   67 1
  70   37   38 1
  71   37   68 1
  72   37   69 1
  73   38   39 1
  74   38   70 1
  75   38   71 1
  76   39   72 1
  77   39   73 1

#	End of record

