#	Name: ASD03430337
#	Creating user name:	WinNT
#	Creation time:	15. 06. 2019 20:40

#	Modifying user name:	WinNT
#	Modification time:	15. 06. 2019 20:40

#	Program:	/corina/corina34_cracker 3.40 0067  02.08.2006

@<TRIPOS>MOLECULE
ASD03430337
  56   62    0    0    0
SMALL
NO_CHARGES


@<TRIPOS>ATOM
   1 C1            -0.0167     1.3806     0.0096 C.ar    
   2 C2             0.0021    -0.0041     0.0020 C.ar    
   3 C3             1.2035    -0.6814    -0.0133 C.ar    
   4 C4             2.4092     0.0135    -0.0098 C.ar    
   5 C5             2.3874     1.4049    -0.0074 C.ar    
   6 C6             1.1840     2.0869     0.0020 C.ar    
   7 O7             3.4719    -0.8412     0.0036 O.3     
   8 C8             1.5521    -2.1452    -0.0497 C.3     
   9 C9             3.0389    -2.1443    -0.4316 C.3     
  10 C10            0.4260    -3.8639     0.9986 C.ar    
  11 C11            1.3129    -2.8237     1.2663 C.ar    
  12 C12            0.7217    -2.9034    -1.0452 C.2     
  13 N13            0.1004    -3.8836    -0.3597 N.am    
  14 O14            0.6287    -2.6780    -2.2334 O.2     
  15 C15            1.7747    -2.6089     2.5453 C.ar    
  16 C16            1.3589    -3.4291     3.5794 C.ar    
  17 C17            0.4789    -4.4648     3.3251 C.ar    
  18 C18            0.0133    -4.6845     2.0450 C.ar    
  19 C19           -0.8104    -4.8564    -0.9683 C.3     
  20 O20           -1.0496     2.2737     0.0188 O.3     
  21 C21           -0.4709     3.5263     0.4302 C.3     
  22 O22            0.9023     3.4232     0.0055 O.3     
  23 C23           -2.2183    -4.3206    -0.9269 C.2     
  24 C24           -2.8016    -3.5788    -1.8689 C.2     
  25 N25           -4.0474    -3.2302    -1.6008 N.2     
  26 C26           -4.5425    -3.6436    -0.4757 C.2     
  27 S27           -3.3828    -4.5716     0.3710 S.3     
  28 N28           -5.8269    -3.3772    -0.0277 N.3     
  29 C29           -6.5640    -2.5591    -0.9993 C.3     
  30 C30           -8.0167    -2.4074    -0.5425 C.3     
  31 C31           -8.0461    -1.7447     0.8375 C.3     
  32 C32           -7.2311    -2.5913     1.8192 C.3     
  33 C33           -5.8012    -2.7376     1.2939 C.3     
  34 H34           -0.9267    -0.5552     0.0085 H       
  35 H35            3.3162     1.9560    -0.0124 H       
  36 H36            3.1618    -2.2531    -1.5091 H       
  37 H37            3.5760    -2.9287     0.1016 H       
  38 H38            2.4619    -1.7993     2.7418 H       
  39 H39            1.7211    -3.2608     4.5829 H       
  40 H40            0.1548    -5.1051     4.1322 H       
  41 H41           -0.6739    -5.4954     1.8542 H       
  42 H42           -0.5178    -5.0296    -2.0039 H       
  43 H43           -0.7623    -5.7945    -0.4154 H       
  44 H44           -0.9635     4.3590    -0.0718 H       
  45 H45           -0.5329     3.6396     1.5126 H       
  46 H46           -2.2963    -3.2863    -2.7775 H       
  47 H47           -6.1011    -1.5749    -1.0706 H       
  48 H48           -6.5389    -3.0437    -1.9753 H       
  49 H49           -8.5596    -1.7872    -1.2557 H       
  50 H50           -8.4843    -3.3903    -0.4842 H       
  51 H51           -7.6137    -0.7463     0.7714 H       
  52 H52           -9.0766    -1.6740     1.1858 H       
  53 H53           -7.2128    -2.1024     2.7932 H       
  54 H54           -7.6864    -3.5770     1.9146 H       
  55 H55           -5.2221    -3.3518     1.9834 H       
  56 H56           -5.3419    -1.7525     1.2118 H       
@<TRIPOS>BOND
   1    1    2 ar
   2    1    6 ar
   3    1   20 1
   4    2    3 ar
   5    2   34 1
   6    3    4 ar
   7    3    8 1
   8    4    5 ar
   9    4    7 1
  10    5    6 ar
  11    5   35 1
  12    6   22 1
  13    7    9 1
  14    8    9 1
  15    8   11 1
  16    8   12 1
  17    9   36 1
  18    9   37 1
  19   10   11 ar
  20   10   13 1
  21   10   18 ar
  22   11   15 ar
  23   12   13 am
  24   12   14 2
  25   13   19 1
  26   15   16 ar
  27   15   38 1
  28   16   17 ar
  29   16   39 1
  30   17   18 ar
  31   17   40 1
  32   18   41 1
  33   19   23 1
  34   19   42 1
  35   19   43 1
  36   20   21 1
  37   21   22 1
  38   21   44 1
  39   21   45 1
  40   23   24 2
  41   23   27 1
  42   24   25 1
  43   24   46 1
  44   25   26 2
  45   26   27 1
  46   26   28 1
  47   28   29 1
  48   28   33 1
  49   29   30 1
  50   29   47 1
  51   29   48 1
  52   30   31 1
  53   30   49 1
  54   30   50 1
  55   31   32 1
  56   31   51 1
  57   31   52 1
  58   32   33 1
  59   32   53 1
  60   32   54 1
  61   33   55 1
  62   33   56 1

#	End of record

