#	Name: ASD01911454
#	Creating user name:	WinNT
#	Creation time:	15. 06. 2019 19:57

#	Modifying user name:	WinNT
#	Modification time:	15. 06. 2019 19:57

#	Program:	/corina/corina34_cracker 3.40 0067  02.08.2006

@<TRIPOS>MOLECULE
ASD01911454
  63   66    0    0    0
SMALL
NO_CHARGES


@<TRIPOS>ATOM
   1 C1             1.1074     0.8998     0.1322 C.3     
   2 C2             1.6884    -0.4965     0.0818 C.2     
   3 N3             3.0248    -0.4174     0.0754 N.am    
   4 C4             2.3530     1.8090     0.1539 C.3     
   5 C5             3.8492    -1.5456     0.0323 C.ar    
   6 C6             3.2800    -2.8127    -0.0048 C.ar    
   7 C7             4.1071    -3.9214    -0.0473 C.ar    
   8 C8             5.4814    -3.7226    -0.0511 C.ar    
   9 C9             5.9778    -2.4338    -0.0127 C.ar    
  10 N10            5.1637    -1.3965     0.0219 N.ar    
  11 I11            6.7879    -5.3591    -0.1137 I       
  12 C12            0.2608     1.1759    -1.1120 C.3     
  13 C13            3.5068     0.8310     0.1136 C.2     
  14 O14            4.6815     1.1304     0.1162 O.2     
  15 C15            0.2779     1.0923     1.4033 C.3     
  16 O16            1.0457    -1.5238     0.0524 O.2     
  17 O17            2.3746     2.6599    -0.9939 O.3     
  18 Si18           2.9535     4.1561    -0.6998 Si      
  19 C19            4.5626     4.0275     0.2403 C.ar    
  20 C20            3.2474     5.0395    -2.3192 C.ar    
  21 C21            1.7169     5.1123     0.3137 C.3     
  22 C22            1.7104     4.5780     1.7474 C.3     
  23 C23            2.1013     6.5932     0.3231 C.3     
  24 C24            0.3233     4.9510    -0.2969 C.3     
  25 C25            5.7331     4.4970    -0.3256 C.ar    
  26 C26            4.5818     3.4679     1.5042 C.ar    
  27 C27            5.7726     3.3727     2.1999 C.ar    
  28 C28            6.9441     3.8367     1.6315 C.ar    
  29 C29            6.9239     4.4018     0.3701 C.ar    
  30 C30            4.4134     4.8155    -3.0271 C.ar    
  31 C31            4.6309     5.4693    -4.2255 C.ar    
  32 C32            3.6822     6.3468    -4.7162 C.ar    
  33 C33            2.5158     6.5701    -4.0088 C.ar    
  34 C34            2.2963     5.9130    -2.8126 C.ar    
  35 H35            2.3816     2.3985     1.0703 H       
  36 H36            2.2064    -2.9307    -0.0003 H       
  37 H37            3.6932    -4.9185    -0.0764 H       
  38 H38            7.0459    -2.2736    -0.0154 H       
  39 H39           -0.5704     0.4718    -1.1495 H       
  40 H40           -0.1268     2.1937    -1.0691 H       
  41 H41            0.8766     1.0589    -2.0038 H       
  42 H42            0.9056     0.9167     2.2769 H       
  43 H43           -0.1099     2.1106     1.4333 H       
  44 H44           -0.5531     0.3869     1.4052 H       
  45 H45            2.7127     4.6555     2.1686 H       
  46 H46            1.0166     5.1638     2.3504 H       
  47 H47            1.3972     3.5339     1.7446 H       
  48 H48            1.9991     7.0015    -0.6823 H       
  49 H49            1.4444     7.1348     1.0037 H       
  50 H50            3.1343     6.6983     0.6547 H       
  51 H51            0.0669     3.8926    -0.3426 H       
  52 H52           -0.4066     5.4754     0.3198 H       
  53 H53            0.3168     5.3701    -1.3031 H       
  54 H54            5.7174     4.9379    -1.3114 H       
  55 H55            3.6665     3.1054     1.9483 H       
  56 H56            5.7875     2.9361     3.1876 H       
  57 H57            7.8744     3.7626     2.1751 H       
  58 H58            7.8392     4.7643    -0.0740 H       
  59 H59            5.1547     4.1300    -2.6436 H       
  60 H60            5.5422     5.2948    -4.7781 H       
  61 H61            3.8524     6.8581    -5.6521 H       
  62 H62            1.7747     7.2559    -4.3921 H       
  63 H63            1.3850     6.0875    -2.2599 H       
@<TRIPOS>BOND
   1    1    2 1
   2    1    4 1
   3    1   12 1
   4    1   15 1
   5    2    3 am
   6    2   16 2
   7    3    5 1
   8    3   13 am
   9    4   13 1
  10    4   17 1
  11    4   35 1
  12    5    6 ar
  13    5   10 ar
  14    6    7 ar
  15    6   36 1
  16    7    8 ar
  17    7   37 1
  18    8    9 ar
  19    8   11 1
  20    9   10 ar
  21    9   38 1
  22   12   39 1
  23   12   40 1
  24   12   41 1
  25   13   14 2
  26   15   42 1
  27   15   43 1
  28   15   44 1
  29   17   18 1
  30   18   19 1
  31   18   20 1
  32   18   21 1
  33   19   25 ar
  34   19   26 ar
  35   20   30 ar
  36   20   34 ar
  37   21   22 1
  38   21   23 1
  39   21   24 1
  40   22   45 1
  41   22   46 1
  42   22   47 1
  43   23   48 1
  44   23   49 1
  45   23   50 1
  46   24   51 1
  47   24   52 1
  48   24   53 1
  49   25   29 ar
  50   25   54 1
  51   26   27 ar
  52   26   55 1
  53   27   28 ar
  54   27   56 1
  55   28   29 ar
  56   28   57 1
  57   29   58 1
  58   30   31 ar
  59   30   59 1
  60   31   32 ar
  61   31   60 1
  62   32   33 ar
  63   32   61 1
  64   33   34 ar
  65   33   62 1
  66   34   63 1

#	End of record

