#	Name: ASD03731822
#	Creating user name:	WinNT
#	Creation time:	15. 06. 2019 20:46

#	Modifying user name:	WinNT
#	Modification time:	15. 06. 2019 20:46

#	Program:	/corina/corina34_cracker 3.40 0067  02.08.2006

@<TRIPOS>MOLECULE
ASD03731822
  39   41    0    0    0
SMALL
NO_CHARGES


@<TRIPOS>ATOM
   1 C1            -0.3875     1.1259    -1.9056 C.2     
   2 C2            -0.2702    -0.2578    -1.4098 C.ar    
   3 C3             0.9140    -0.9775    -1.6098 C.ar    
   4 C4             1.0183    -2.2724    -1.1437 C.ar    
   5 C5            -0.0490    -2.8605    -0.4777 C.ar    
   6 C6            -1.2276    -2.1480    -0.2772 C.ar    
   7 C7            -1.3391    -0.8533    -0.7336 C.ar    
   8 O8             0.5453     1.6437    -2.4892 O.2     
   9 N9            -1.5304     1.8148    -1.7168 N.am    
  10 O10            0.0574    -4.1342    -0.0213 O.3     
  11 C11            1.5224    -5.5066    -1.2523 C.ar    
  12 C12            1.2593    -4.7564    -0.1411 C.ar    
  13 C13            2.2111    -4.6202     0.8742 C.ar    
  14 C14            3.4231    -5.2304     0.7826 C.ar    
  15 C15            3.7276    -6.0100    -0.3467 C.ar    
  16 C16            4.9701    -6.6542    -0.4736 C.ar    
  17 C17            5.2316    -7.4014    -1.5807 C.ar    
  18 C18            4.2848    -7.5386    -2.5943 C.ar    
  19 C19            3.0710    -6.9295    -2.5062 C.ar    
  20 C20            2.7643    -6.1497    -1.3774 C.ar    
  21 S21           -1.6621     3.3688    -2.2736 S.o2    
  22 O22           -2.9659     3.7731    -1.8790 O.2     
  23 O23           -0.5072     4.0222    -1.7652 O.2     
  24 C24           -1.5628     3.2130    -4.0782 C.3     
  25 F25            1.9523    -0.4057    -2.2581 F       
  26 Cl26          -2.5573    -2.8902     0.5563 Cl      
  27 H27            1.9310    -2.8291    -1.2974 H       
  28 H28           -2.2526    -0.3002    -0.5729 H       
  29 H29           -2.2758     1.4003    -1.2548 H       
  30 H30            0.7777    -5.6081    -2.0279 H       
  31 H31            1.9807    -4.0216     1.7432 H       
  32 H32            4.1488    -5.1162     1.5743 H       
  33 H33            5.7139    -6.5565     0.3033 H       
  34 H34            6.1874    -7.8953    -1.6754 H       
  35 H35            4.5180    -8.1368    -3.4626 H       
  36 H36            2.3472    -7.0444    -3.2996 H       
  37 H37           -2.3779     2.5828    -4.4339 H       
  38 H38           -1.6418     4.2004    -4.5330 H       
  39 H39           -0.6089     2.7621    -4.3520 H       
@<TRIPOS>BOND
   1    1    2 1
   2    1    8 2
   3    1    9 am
   4    2    3 ar
   5    2    7 ar
   6    3    4 ar
   7    3   25 1
   8    4    5 ar
   9    4   27 1
  10    5    6 ar
  11    5   10 1
  12    6    7 ar
  13    6   26 1
  14    7   28 1
  15    9   21 am
  16    9   29 1
  17   10   12 1
  18   11   12 ar
  19   11   20 ar
  20   11   30 1
  21   12   13 ar
  22   13   14 ar
  23   13   31 1
  24   14   15 ar
  25   14   32 1
  26   15   16 ar
  27   15   20 ar
  28   16   17 ar
  29   16   33 1
  30   17   18 ar
  31   17   34 1
  32   18   19 ar
  33   18   35 1
  34   19   20 ar
  35   19   36 1
  36   21   22 2
  37   21   23 2
  38   21   24 1
  39   24   37 1
  40   24   38 1
  41   24   39 1

#	End of record

