#	Name: ASD01910174
#	Creating user name:	WinNT
#	Creation time:	15. 06. 2019 19:55

#	Modifying user name:	WinNT
#	Modification time:	15. 06. 2019 19:55

#	Program:	/corina/corina34_cracker 3.40 0067  02.08.2006

@<TRIPOS>MOLECULE
ASD01910174
  40   42    0    0    0
SMALL
NO_CHARGES


@<TRIPOS>ATOM
   1 C1             0.1651     1.6638    -0.3714 C.ar    
   2 C2             0.1015     0.2853    -0.3049 C.ar    
   3 C3             1.2658    -0.4593    -0.1612 C.ar    
   4 C4             2.4933     0.1832    -0.0846 C.ar    
   5 C5             2.5537     1.5679    -0.1517 C.ar    
   6 C6             1.3856     2.3065    -0.2954 C.ar    
   7 N7             3.7888     2.2193    -0.0744 N.am    
   8 C8             4.0024     3.3452    -0.7837 C.2     
   9 C9             5.2625     4.0988    -0.6124 C.ar    
  10 N10            1.2006    -1.8546    -0.0935 N.am    
  11 C11            2.1792    -2.6023    -0.6409 C.2     
  12 C12            5.4867     5.2651    -1.3454 C.ar    
  13 C13            6.6646     5.9646    -1.1809 C.ar    
  14 C14            7.6231     5.5124    -0.2920 C.ar    
  15 C15            7.4075     4.3558     0.4388 C.ar    
  16 C16            6.2307     3.6500     0.2876 C.ar    
  17 O17            3.1598    -2.0651    -1.1181 O.2     
  18 O18            3.1588     3.7410    -1.5644 O.2     
  19 C19            2.0602    -4.0755    -0.6610 C.ar    
  20 Cl20           8.6165     3.7963     1.5519 Cl      
  21 C21            3.0719    -4.8527    -1.2271 C.ar    
  22 C22            2.9555    -6.2275    -1.2425 C.ar    
  23 C23            1.8389    -6.8365    -0.6989 C.ar    
  24 C24            0.8310    -6.0718    -0.1355 C.ar    
  25 C25            0.9381    -4.6957    -0.1086 C.ar    
  26 Cl26          -0.5666    -6.8454     0.5442 Cl      
  27 H27           -0.7410     2.2400    -0.4876 H       
  28 H28           -0.8543    -0.2141    -0.3643 H       
  29 H29            3.3998    -0.3932     0.0274 H       
  30 H30            1.4319     3.3843    -0.3477 H       
  31 H31            4.4917     1.8607     0.4897 H       
  32 H32            0.4510    -2.2842     0.3474 H       
  33 H33            4.7397     5.6193    -2.0404 H       
  34 H34            6.8389     6.8672    -1.7477 H       
  35 H35            8.5436     6.0633    -0.1676 H       
  36 H36            6.0631     2.7484     0.8580 H       
  37 H37            3.9441    -4.3788    -1.6526 H       
  38 H38            3.7379    -6.8295    -1.6804 H       
  39 H39            1.7524    -7.9129    -0.7143 H       
  40 H40            0.1520    -4.0999     0.3312 H       
@<TRIPOS>BOND
   1    1    2 ar
   2    1    6 ar
   3    1   27 1
   4    2    3 ar
   5    2   28 1
   6    3    4 ar
   7    3   10 1
   8    4    5 ar
   9    4   29 1
  10    5    6 ar
  11    5    7 1
  12    6   30 1
  13    7    8 am
  14    7   31 1
  15    8    9 1
  16    8   18 2
  17    9   12 ar
  18    9   16 ar
  19   10   11 am
  20   10   32 1
  21   11   17 2
  22   11   19 1
  23   12   13 ar
  24   12   33 1
  25   13   14 ar
  26   13   34 1
  27   14   15 ar
  28   14   35 1
  29   15   16 ar
  30   15   20 1
  31   16   36 1
  32   19   21 ar
  33   19   25 ar
  34   21   22 ar
  35   21   37 1
  36   22   23 ar
  37   22   38 1
  38   23   24 ar
  39   23   39 1
  40   24   25 ar
  41   24   26 1
  42   25   40 1

#	End of record

