#	Name: ASD00180010
#	Creating user name:	WinNT
#	Creation time:	15. 06. 2019 18:33

#	Modifying user name:	WinNT
#	Modification time:	15. 06. 2019 18:33

#	Program:	/corina/corina34_cracker 3.40 0067  02.08.2006

@<TRIPOS>MOLECULE
ASD00180010
  30   31    0    0    0
SMALL
NO_CHARGES


@<TRIPOS>ATOM
   1 C1             0.0883     1.0596     0.4471 C.ar    
   2 C2             0.2463    -0.3032     0.6015 C.ar    
   3 C3             1.5110    -0.8607     0.5491 C.ar    
   4 C4             2.6104    -0.0549     0.3463 C.ar    
   5 C5             2.4571     1.3242     0.1916 C.ar    
   6 C6             1.1890     1.8760     0.2389 C.ar    
   7 N7             3.6088     2.0858    -0.0007 N.3     
   8 C8             3.3400     3.3925    -0.6044 C.3     
   9 C9             2.2741     4.1103     0.2328 C.3     
  10 C10            0.9537     3.3550     0.0620 C.3     
  11 C11            4.6080     1.3418    -0.7791 C.3     
  12 C12            5.8075     2.2469    -1.0670 C.3     
  13 C13            6.8326     1.4836    -1.8655 C.2     
  14 O14            6.6251     0.3337    -2.1728 O.2     
  15 O15            7.9762     2.0813    -2.2353 O.3     
  16 H16           -0.9005     1.4922     0.4845 H       
  17 H17           -0.6161    -0.9328     0.7632 H       
  18 H18            1.6369    -1.9268     0.6673 H       
  19 H19            3.5968    -0.4928     0.3072 H       
  20 H20            4.2551     3.9846    -0.6170 H       
  21 H21            2.9753     3.2569    -1.6226 H       
  22 H22            2.5672     4.1088     1.2826 H       
  23 H23            2.1596     5.1362    -0.1172 H       
  24 H24            0.5541     3.5421    -0.9347 H       
  25 H25            0.2396     3.7007     0.8094 H       
  26 H26            4.9373     0.4720    -0.2107 H       
  27 H27            4.1656     1.0146    -1.7201 H       
  28 H28            5.4782     3.1167    -1.6354 H       
  29 H29            6.2499     2.5740    -0.1260 H       
  30 H30            8.6031     1.5513    -2.7463 H       
@<TRIPOS>BOND
   1    1    2 ar
   2    1    6 ar
   3    1   16 1
   4    2    3 ar
   5    2   17 1
   6    3    4 ar
   7    3   18 1
   8    4    5 ar
   9    4   19 1
  10    5    7 1
  11    5    6 ar
  12    6   10 1
  13    7    8 1
  14    7   11 1
  15    8    9 1
  16    8   20 1
  17    8   21 1
  18    9   10 1
  19    9   22 1
  20    9   23 1
  21   10   24 1
  22   10   25 1
  23   11   12 1
  24   11   26 1
  25   11   27 1
  26   12   13 1
  27   12   28 1
  28   12   29 1
  29   13   14 2
  30   13   15 1
  31   15   30 1

#	End of record

