#	Name: ASD04882288
#	Creating user name:	WinNT
#	Creation time:	15. 06. 2019 20:54

#	Modifying user name:	WinNT
#	Modification time:	15. 06. 2019 20:54

#	Program:	/corina/corina34_cracker 3.40 0067  02.08.2006

@<TRIPOS>MOLECULE
ASD04882288
  54   57    0    0    0
SMALL
NO_CHARGES


@<TRIPOS>ATOM
   1 N1            -0.0169     1.3967     0.0097 N.am    
   2 C2             0.1108     0.0023    -0.0344 C.ar    
   3 C3            -1.0259    -0.8070     0.0451 C.ar    
   4 C4            -0.9006    -2.1909     0.0010 C.ar    
   5 C5             0.3433    -2.7693    -0.1207 C.ar    
   6 C6             1.4842    -1.9658    -0.2007 C.ar    
   7 C7             1.3605    -0.5741    -0.1623 C.ar    
   8 N8            -2.2855    -0.2265     0.1692 N.3     
   9 C9            -3.1515    -0.6015    -0.9574 C.3     
  10 C10           -2.9077    -0.5872     1.4507 C.3     
  11 C11           -4.2520     0.1325     1.5825 C.3     
  12 N12           -5.1180    -0.2424     0.4560 N.3     
  13 C13           -4.4958     0.1182    -0.8256 C.3     
  14 C14            2.8165    -2.5856    -0.3312 C.2     
  15 O15            3.8085    -1.8858    -0.4007 O.2     
  16 C16            0.9203     2.1777    -0.5630 C.2     
  17 C17            0.7430     3.6329    -0.5940 C.2     
  18 O18            1.9139     1.6751    -1.0546 O.2     
  19 O19           -0.3054     4.3148    -0.0880 O.3     
  20 C20            1.6130     4.5360    -1.1348 C.2     
  21 C21            1.0476     5.8062    -0.9423 C.2     
  22 C22           -0.1262     5.6255    -0.2976 C.2     
  23 N23            2.9342    -3.9276    -0.3732 N.am    
  24 C24           -6.3814     0.3399     0.5804 C.ar    
  25 C25           -6.5094     1.7222     0.6252 C.ar    
  26 C26           -7.5135    -0.4621     0.6539 C.ar    
  27 C27           -8.7610     0.1168     0.7769 C.ar    
  28 C28           -8.8844     1.4935     0.8265 C.ar    
  29 C29           -7.7603     2.2947     0.7483 C.ar    
  30 C30           -7.3801    -1.9622     0.5990 C.3     
  31 H31           -0.7820     1.8000     0.4490 H       
  32 H32           -1.7807    -2.8138     0.0626 H       
  33 H33            0.4374    -3.8447    -0.1540 H       
  34 H34            2.2403     0.0493    -0.2240 H       
  35 H35           -2.6748    -0.3129    -1.8942 H       
  36 H36           -3.3136    -1.6793    -0.9484 H       
  37 H37           -3.0671    -1.6648     1.4871 H       
  38 H38           -2.2533    -0.2882     2.2696 H       
  39 H39           -4.7287    -0.1560     2.5193 H       
  40 H40           -4.0899     1.2104     1.5735 H       
  41 H41           -4.3364     1.1959    -0.8619 H       
  42 H42           -5.1501    -0.1807    -1.6444 H       
  43 H43            2.5540     4.3156    -1.6169 H       
  44 H44            1.4721     6.7506    -1.2492 H       
  45 H45           -0.8078     6.4089    -0.0007 H       
  46 H46            2.1429    -4.4858    -0.3178 H       
  47 H47            3.8103    -4.3352    -0.4590 H       
  48 H48           -5.6317     2.3486     0.5642 H       
  49 H49           -9.6415    -0.5061     0.8341 H       
  50 H50           -9.8614     1.9437     0.9221 H       
  51 H51           -7.8602     3.3694     0.7874 H       
  52 H52           -7.2604    -2.3536     1.6092 H       
  53 H53           -8.2749    -2.3902     0.1471 H       
  54 H54           -6.5084    -2.2278     0.0008 H       
@<TRIPOS>BOND
   1    1    2 1
   2    1   16 am
   3    1   31 1
   4    2    3 ar
   5    2    7 ar
   6    3    4 ar
   7    3    8 1
   8    4    5 ar
   9    4   32 1
  10    5    6 ar
  11    5   33 1
  12    6    7 ar
  13    6   14 1
  14    7   34 1
  15    8    9 1
  16    8   10 1
  17    9   13 1
  18    9   35 1
  19    9   36 1
  20   10   11 1
  21   10   37 1
  22   10   38 1
  23   11   12 1
  24   11   39 1
  25   11   40 1
  26   12   13 1
  27   12   24 1
  28   13   41 1
  29   13   42 1
  30   14   15 2
  31   14   23 am
  32   16   18 2
  33   16   17 1
  34   17   19 1
  35   17   20 2
  36   19   22 1
  37   20   21 1
  38   20   43 1
  39   21   22 2
  40   21   44 1
  41   22   45 1
  42   23   46 1
  43   23   47 1
  44   24   25 ar
  45   24   26 ar
  46   25   29 ar
  47   25   48 1
  48   26   27 ar
  49   26   30 1
  50   27   28 ar
  51   27   49 1
  52   28   29 ar
  53   28   50 1
  54   29   51 1
  55   30   52 1
  56   30   53 1
  57   30   54 1

#	End of record

