#	Name: ASD03091934
#	Creating user name:	WinNT
#	Creation time:	15. 06. 2019 20:31

#	Modifying user name:	WinNT
#	Modification time:	15. 06. 2019 20:31

#	Program:	/corina/corina34_cracker 3.40 0067  02.08.2006

@<TRIPOS>MOLECULE
ASD03091934
  32   33    0    0    0
SMALL
NO_CHARGES


@<TRIPOS>ATOM
   1 O1             1.2169     1.0666     0.1546 O.3     
   2 C2             0.6175    -0.1516     0.0754 C.ar    
   3 C3             0.6027    -0.8409    -1.1257 C.ar    
   4 C4            -0.0070    -2.0797    -1.2053 C.ar    
   5 C5            -0.6034    -2.6339    -0.0869 C.ar    
   6 Cl6           -1.3670    -4.1893    -0.1935 Cl      
   7 C7            -0.5922    -1.9514     1.1164 C.ar    
   8 C8             0.0222    -0.7113     1.2038 C.ar    
   9 N9             0.0396    -0.0204     2.4231 N.am    
  10 C10           -0.0506    -0.6993     3.5838 C.2     
  11 O11           -0.2202    -1.9034     3.5723 O.2     
  12 N12            0.0471    -0.0438     4.7573 N.am    
  13 C13           -0.1419    -0.7331     5.9629 C.ar    
  14 C14            0.2730    -2.0508     6.0827 C.ar    
  15 C15            0.0855    -2.7287     7.2729 C.ar    
  16 C16           -0.5155    -2.0964     8.3451 C.ar    
  17 C17           -0.9318    -0.7824     8.2330 C.ar    
  18 C18           -0.7420    -0.0944     7.0461 C.ar    
  19 O19           -1.1457     1.1995     6.9361 O.3     
  20 N20           -0.7144    -2.8278     9.6166 N.pl3   
  21 O21           -0.3486    -3.9853     9.7170 O.2     
  22 O22           -1.2438    -2.2722    10.5624 O.2     
  23 H23            2.1547     1.0292     0.3874 H       
  24 H24            1.0671    -0.4107    -2.0007 H       
  25 H25           -0.0178    -2.6155    -2.1429 H       
  26 H26           -1.0584    -2.3860     1.9883 H       
  27 H27            0.1166     0.9465     2.4315 H       
  28 H28            0.2482     0.9051     4.7675 H       
  29 H29            0.7423    -2.5475     5.2464 H       
  30 H30            0.4091    -3.7550     7.3651 H       
  31 H31           -1.4014    -0.2913     9.0725 H       
  32 H32           -2.0555     1.3025     6.6249 H       
@<TRIPOS>BOND
   1    1    2 1
   2    1   23 1
   3    2    8 ar
   4    2    3 ar
   5    3    4 ar
   6    3   24 1
   7    4    5 ar
   8    4   25 1
   9    5    6 1
  10    5    7 ar
  11    7    8 ar
  12    7   26 1
  13    8    9 1
  14    9   10 am
  15    9   27 1
  16   10   11 2
  17   10   12 am
  18   12   13 1
  19   12   28 1
  20   13   18 ar
  21   13   14 ar
  22   14   15 ar
  23   14   29 1
  24   15   16 ar
  25   15   30 1
  26   16   17 ar
  27   16   20 1
  28   17   18 ar
  29   17   31 1
  30   18   19 1
  31   19   32 1
  32   20   21 2
  33   20   22 2

#	End of record

