#	Name: ASD01914633
#	Creating user name:	WinNT
#	Creation time:	15. 06. 2019 20:03

#	Modifying user name:	WinNT
#	Modification time:	15. 06. 2019 20:03

#	Program:	/corina/corina34_cracker 3.40 0067  02.08.2006

@<TRIPOS>MOLECULE
ASD01914633
  35   38    0    0    0
SMALL
NO_CHARGES


@<TRIPOS>ATOM
   1 C1            -0.0166     1.3757     0.0096 C.2     
   2 N2             0.0021    -0.0041     0.0020 N.pl3   
   3 C3             1.2678     1.7850    -0.0005 C.2     
   4 N4             2.0509     0.6706    -0.0122 N.2     
   5 C5             1.2877    -0.3925    -0.0099 C.2     
   6 C6             1.7249     3.1421     0.0005 C.1     
   7 C7             2.0996     4.2547     0.0012 C.1     
   8 C8             2.5567     5.6118     0.0022 C.ar    
   9 C9             3.9279     5.8823    -0.0092 C.ar    
  10 C10            4.3525     7.1982    -0.0081 C.ar    
  11 C11            3.3955     8.2044     0.0043 C.ar    
  12 N12            1.6732     6.6063     0.0084 N.ar    
  13 C13           -1.2032    -0.7167     0.0057 C.ar    
  14 C14           -2.3727     0.0001    -0.2710 C.ar    
  15 O15           -2.3278     1.3254    -0.5617 O.3     
  16 C16           -1.3108     2.1440     0.0316 C.3     
  17 C17           -1.2548    -2.0697     0.2719 C.ar    
  18 C18           -2.4748    -2.7235     0.2768 C.ar    
  19 C19           -3.6359    -2.0195     0.0165 C.ar    
  20 C20           -3.5888    -0.6655    -0.2560 C.ar    
  21 C21            2.0545     7.8671     0.0151 C.ar    
  22 C22            1.0144     8.9576     0.0286 C.3     
  23 H23            1.6350    -1.4151    -0.0161 H       
  24 H24            4.6455     5.0751    -0.0183 H       
  25 H25            5.4054     7.4383    -0.0164 H       
  26 H26            3.6961     9.2417     0.0058 H       
  27 H27           -1.5845     2.3828     1.0593 H       
  28 H28           -1.1983     3.0638    -0.5423 H       
  29 H29           -0.3461    -2.6169     0.4753 H       
  30 H30           -2.5197    -3.7825     0.4836 H       
  31 H31           -4.5867    -2.5316     0.0261 H       
  32 H32           -4.5016    -0.1244    -0.4570 H       
  33 H33            0.7543     9.2243    -0.9958 H       
  34 H34            0.1243     8.6043     0.5491 H       
  35 H35            1.4122     9.8329     0.5421 H       
@<TRIPOS>BOND
   1    1    2 1
   2    1    3 2
   3    1   16 1
   4    2   13 1
   5    2    5 1
   6    3    4 1
   7    3    6 1
   8    4    5 2
   9    5   23 1
  10    6    7 3
  11    7    8 1
  12    8    9 ar
  13    8   12 ar
  14    9   10 ar
  15    9   24 1
  16   10   11 ar
  17   10   25 1
  18   11   21 ar
  19   11   26 1
  20   12   21 ar
  21   13   14 ar
  22   13   17 ar
  23   14   15 1
  24   14   20 ar
  25   15   16 1
  26   16   27 1
  27   16   28 1
  28   17   18 ar
  29   17   29 1
  30   18   19 ar
  31   18   30 1
  32   19   20 ar
  33   19   31 1
  34   20   32 1
  35   21   22 1
  36   22   33 1
  37   22   34 1
  38   22   35 1

#	End of record

