#	Name: ASD02398079
#	Creating user name:	WinNT
#	Creation time:	15. 06. 2019 20:20

#	Modifying user name:	WinNT
#	Modification time:	15. 06. 2019 20:20

#	Program:	/corina/corina34_cracker 3.40 0067  02.08.2006

@<TRIPOS>MOLECULE
ASD02398079
  56   58    0    0    0
SMALL
NO_CHARGES


@<TRIPOS>ATOM
   1 C1            -0.0167     1.3833     0.0096 C.ar    
   2 C2             0.0021    -0.0041     0.0020 C.ar    
   3 C3            -1.1853    -0.7097     0.0095 C.ar    
   4 C4            -2.3921    -0.0347     0.0242 C.ar    
   5 C5            -2.4135     1.3476     0.0318 C.ar    
   6 C6            -1.2285     2.0581     0.0306 C.ar    
   7 C7             1.3169    -0.7404    -0.0149 C.3     
   8 C8             1.4199    -1.6239     1.2277 C.3     
   9 C9             0.4550    -2.7749     1.1199 C.2     
  10 C10            0.2032    -3.3268    -0.0621 C.2     
  11 C11            0.8689    -2.8076    -1.2677 C.2     
  12 C12            1.3987    -1.5893    -1.2559 C.2     
  13 C13            2.0829    -1.0554    -2.4879 C.3     
  14 C14            2.0147     0.6627    -4.7205 C.3     
  15 C15           -3.6860    -0.8071     0.0313 C.3     
  16 C16           -4.1047    -1.0727     1.4544 C.2     
  17 O17           -3.4223    -0.6755     2.3690 O.2     
  18 O18           -5.2356    -1.7505     1.7060 O.3     
  19 C19            1.2684     1.6957    -5.5247 C.ar    
  20 C20            1.4251     3.0392    -5.2395 C.ar    
  21 C21            0.7405     3.9869    -5.9772 C.ar    
  22 C22           -0.1005     3.5910    -7.0004 C.ar    
  23 C23           -0.2566     2.2475    -7.2861 C.ar    
  24 C24            0.4314     1.3001    -6.5513 C.ar    
  25 S25            1.0106     0.1659    -3.2937 S.o2    
  26 O26           -0.1535    -0.4967    -3.7681 O.2     
  27 O27            0.8685     1.2843    -2.4287 O.2     
  28 O28            1.1501     2.0799     0.0022 O.3     
  29 C29            1.0546     3.5057     0.0108 C.3     
  30 C30           -0.7603    -4.4807    -0.1679 C.3     
  31 F31           -1.2586    -4.7901     1.1021 F       
  32 F32           -1.8194    -4.1280    -1.0112 F       
  33 F33           -0.0973    -5.5951    -0.6931 F       
  34 H34           -1.1711    -1.7896     0.0036 H       
  35 H35           -3.3573     1.8725     0.0432 H       
  36 H36           -1.2458     3.1379     0.0366 H       
  37 H37            2.1351    -0.0202    -0.0160 H       
  38 H38            2.4356    -2.0098     1.3143 H       
  39 H39            1.1817    -1.0335     2.1125 H       
  40 H40           -0.0333    -3.1530     2.0059 H       
  41 H41            0.9268    -3.4151    -2.1588 H       
  42 H42            3.0234    -0.5827    -2.2051 H       
  43 H43            2.2814    -1.8758    -3.1776 H       
  44 H44            2.2153    -0.2082    -5.3445 H       
  45 H45            2.9573     1.0848    -4.3720 H       
  46 H46           -4.4587    -0.2262    -0.4723 H       
  47 H47           -3.5465    -1.7546    -0.4892 H       
  48 H48           -5.4627    -1.8964     2.6345 H       
  49 H49            2.0822     3.3485    -4.4402 H       
  50 H50            0.8624     5.0365    -5.7540 H       
  51 H51           -0.6360     4.3313    -7.5762 H       
  52 H52           -0.9139     1.9382    -8.0853 H       
  53 H53            0.3095     0.2505    -6.7745 H       
  54 H54            0.5092     3.8386    -0.8722 H       
  55 H55            0.5262     3.8290     0.9076 H       
  56 H56            2.0556     3.9369     0.0036 H       
@<TRIPOS>BOND
   1    1    2 ar
   2    1   28 1
   3    1    6 ar
   4    2    3 ar
   5    2    7 1
   6    3    4 ar
   7    3   34 1
   8    4    5 ar
   9    4   15 1
  10    5    6 ar
  11    5   35 1
  12    6   36 1
  13    7    8 1
  14    7   12 1
  15    7   37 1
  16    8    9 1
  17    8   38 1
  18    8   39 1
  19    9   10 2
  20    9   40 1
  21   10   11 1
  22   10   30 1
  23   11   12 2
  24   11   41 1
  25   12   13 1
  26   13   25 1
  27   13   42 1
  28   13   43 1
  29   14   19 1
  30   14   25 1
  31   14   44 1
  32   14   45 1
  33   15   16 1
  34   15   46 1
  35   15   47 1
  36   16   17 2
  37   16   18 1
  38   18   48 1
  39   19   20 ar
  40   19   24 ar
  41   20   21 ar
  42   20   49 1
  43   21   22 ar
  44   21   50 1
  45   22   23 ar
  46   22   51 1
  47   23   24 ar
  48   23   52 1
  49   24   53 1
  50   25   26 2
  51   25   27 2
  52   28   29 1
  53   29   54 1
  54   29   55 1
  55   29   56 1
  56   30   31 1
  57   30   32 1
  58   30   33 1

#	End of record

