#	Name: ASD01940468
#	Creating user name:	WinNT
#	Creation time:	15. 06. 2019 20:12

#	Modifying user name:	WinNT
#	Modification time:	15. 06. 2019 20:12

#	Program:	/corina/corina34_cracker 3.40 0067  02.08.2006

@<TRIPOS>MOLECULE
ASD01940468
  57   59    0    0    0
SMALL
NO_CHARGES


@<TRIPOS>ATOM
   1 N1             0.7311     3.8446    -2.0958 N.am    
   2 N2             0.7126     2.9514    -3.1717 N.2     
   3 C3             1.5147     1.9533    -2.9379 C.2     
   4 C4             2.1229     2.1662    -1.6275 C.ar    
   5 C5             3.0481     1.4442    -0.8563 C.ar    
   6 C6             3.4313     1.9435     0.3957 C.ar    
   7 C7             2.8907     3.1516     0.8638 C.ar    
   8 C8             1.9936     3.8489     0.1138 C.ar    
   9 C9             1.5959     3.3736    -1.1367 C.ar    
  10 C10            0.0198     4.9865    -2.0147 C.2     
  11 O11            0.1124     5.6910    -1.0298 O.2     
  12 O12           -0.7931     5.3461    -3.0254 O.3     
  13 C13            4.3984     1.2023     1.2188 C.2     
  14 O14            4.8152     0.1238     0.8436 O.2     
  15 O15            4.8227     1.7189     2.3894 O.3     
  16 N16            3.5746     0.2543    -1.3267 N.pl3   
  17 C17            2.8427    -0.9316    -1.2033 C.ar    
  18 C18            3.4077    -2.1429    -1.5896 C.ar    
  19 C19            2.6813    -3.3126    -1.4657 C.ar    
  20 C20            1.3942    -3.2785    -0.9582 C.ar    
  21 C21            0.8306    -2.0751    -0.5741 C.ar    
  22 C22            1.5533    -0.9030    -0.6900 C.ar    
  23 F23            4.6640    -2.1759    -2.0854 F       
  24 Br24           0.4035    -4.8804    -0.7902 Br      
  25 C25           -1.5285     6.5883    -2.8697 C.3     
  26 C26           -0.5432     7.7468    -2.7026 C.3     
  27 C27           -2.3924     6.8284    -4.1094 C.3     
  28 C28           -2.4249     6.4988    -1.6330 C.3     
  29 C29            5.6490     0.8662     3.2252 C.3     
  30 C30            6.9165     0.4773     2.4615 C.3     
  31 C31            6.0328     1.6196     4.5004 C.3     
  32 C32            4.8684    -0.3968     3.5945 C.3     
  33 H33            1.6973     1.1164    -3.5957 H       
  34 H34            3.1895     3.5319     1.8295 H       
  35 H35            1.5868     4.7763     0.4891 H       
  36 H36            4.4511     0.2424    -1.7419 H       
  37 H37            3.1185    -4.2536    -1.7655 H       
  38 H38           -0.1742    -2.0521    -0.1789 H       
  39 H39            1.1137     0.0352    -0.3852 H       
  40 H40            0.0954     7.8106    -3.5836 H       
  41 H41           -1.0953     8.6794    -2.5857 H       
  42 H42            0.0722     7.5758    -1.8193 H       
  43 H43           -3.0944     6.0031    -4.2285 H       
  44 H44           -2.9445     7.7610    -3.9926 H       
  45 H45           -1.7538     6.8922    -4.9905 H       
  46 H46           -1.8095     6.3278    -0.7498 H       
  47 H47           -2.9770     7.4314    -1.5161 H       
  48 H48           -3.1269     5.6735    -1.7521 H       
  49 H49            7.4121     1.3774     2.0979 H       
  50 H50            7.5892    -0.0646     3.1262 H       
  51 H51            6.6510    -0.1579     1.6165 H       
  52 H52            5.1299     1.8967     5.0444 H       
  53 H53            6.6531     0.9795     5.1278 H       
  54 H54            6.5890     2.5194     4.2373 H       
  55 H55            4.5949    -0.9335     2.6861 H       
  56 H56            5.4886    -1.0368     4.2219 H       
  57 H57            3.9654    -0.1197     4.1386 H       
@<TRIPOS>BOND
   1    1    2 1
   2    1    9 1
   3    1   10 am
   4    2    3 2
   5    3    4 1
   6    3   33 1
   7    4    5 ar
   8    4    9 ar
   9    5    6 ar
  10    5   16 1
  11    6    7 ar
  12    6   13 1
  13    7    8 ar
  14    7   34 1
  15    8    9 ar
  16    8   35 1
  17   10   11 2
  18   10   12 1
  19   12   25 1
  20   13   14 2
  21   13   15 1
  22   15   29 1
  23   16   17 1
  24   16   36 1
  25   17   18 ar
  26   17   22 ar
  27   18   19 ar
  28   18   23 1
  29   19   20 ar
  30   19   37 1
  31   20   21 ar
  32   20   24 1
  33   21   22 ar
  34   21   38 1
  35   22   39 1
  36   25   26 1
  37   25   28 1
  38   25   27 1
  39   26   40 1
  40   26   41 1
  41   26   42 1
  42   27   43 1
  43   27   44 1
  44   27   45 1
  45   28   46 1
  46   28   47 1
  47   28   48 1
  48   29   30 1
  49   29   32 1
  50   29   31 1
  51   30   49 1
  52   30   50 1
  53   30   51 1
  54   31   52 1
  55   31   53 1
  56   31   54 1
  57   32   55 1
  58   32   56 1
  59   32   57 1

#	End of record

