#	Name: ASD01816597
#	Creating user name:	WinNT
#	Creation time:	15. 06. 2019 19:35

#	Modifying user name:	WinNT
#	Modification time:	15. 06. 2019 19:35

#	Program:	/corina/corina34_cracker 3.40 0067  02.08.2006

@<TRIPOS>MOLECULE
ASD01816597
  81   88    0    0    0
SMALL
NO_CHARGES


@<TRIPOS>ATOM
   1 C1            -0.0165     1.3805     0.0430 C.ar    
   2 C2             0.0022    -0.0043     0.0349 C.ar    
   3 C3            -1.1753    -0.7254     0.0312 C.ar    
   4 C4            -2.3995    -0.0671     0.0352 C.ar    
   5 C5            -2.4231     1.3374     0.0434 C.ar    
   6 C6            -1.2279     2.0602     0.0533 C.ar    
   7 N7            -3.5816    -0.7892     0.0306 N.pl3   
   8 C8            -4.7923    -0.2090     0.0340 C.2     
   9 C9            -4.9388     1.1557     0.0425 C.2     
  10 C10           -3.7325     2.0146     0.0475 C.2     
  11 C11           -6.0661     2.0829     0.0490 C.2     
  12 N12           -5.5331     3.3237     0.0571 N.am    
  13 N13           -4.1377     3.2525     0.0560 N.2     
  14 C14           -6.2735     4.5126     0.0645 C.ar    
  15 O15           -7.2520     1.7948     0.0473 O.2     
  16 F16            1.1447     2.0710     0.0465 F       
  17 C17           -6.7306     5.0401     1.2643 C.ar    
  18 C18           -7.4604     6.2133     1.2685 C.ar    
  19 C19           -7.7366     6.8627     0.0796 C.ar    
  20 C20           -7.2834     6.3413    -1.1187 C.ar    
  21 C21           -6.5476     5.1707    -1.1301 C.ar    
  22 N22           -1.2507     3.4560     0.0619 N.3     
  23 C23           -0.5790     3.9861     1.2560 C.3     
  24 C24           -0.6235     5.4922     1.2304 C.ar    
  25 C25           -1.6842     6.1612     1.8130 C.ar    
  26 C26           -1.7278     7.5415     1.7912 C.ar    
  27 C27           -0.7052     8.2574     1.1834 C.ar    
  28 C28            0.3585     7.5829     0.5992 C.ar    
  29 C29            0.3993     6.2026     0.6292 C.ar    
  30 N30           -0.7468     9.6584     1.1591 N.pl3   
  31 N31           -1.7544    10.4629     1.7069 N.2     
  32 C32            0.1815    10.4728     0.6081 C.2     
  33 C33           -0.2270    11.7491     0.7959 C.2     
  34 C34           -1.4430    11.7149     1.4871 C.2     
  35 F35           -6.1050     4.6611    -2.3004 F       
  36 C36           -3.5072    -2.2522     0.0210 C.3     
  37 C37           -4.0784    -2.8022     1.3309 C.3     
  38 C38           -4.3253    -2.7985    -1.1525 C.3     
  39 C39           -4.2939    -4.3282    -1.1215 C.3     
  40 N40           -4.8511    -4.8049     0.1508 N.3     
  41 C41           -4.0542    -4.3318     1.2899 C.3     
  42 C42           -4.9649    -6.2694     0.1599 C.3     
  43 C43           -5.3032    -6.7383     1.5516 C.ar    
  44 C44           -6.6249    -6.8643     1.9363 C.ar    
  45 C45           -4.2917    -7.0478     2.4416 C.ar    
  46 C46           -4.6020    -7.4780     3.7181 C.ar    
  47 C47           -5.9237    -7.5981     4.1048 C.ar    
  48 C48           -6.9352    -7.2944     3.2129 C.ar    
  49 H49            0.9480    -0.5257     0.0311 H       
  50 H50           -1.1450    -1.8050     0.0249 H       
  51 H51           -5.6742    -0.8325     0.0297 H       
  52 H52           -6.5163     4.5337     2.1938 H       
  53 H53           -7.8159     6.6236     2.2021 H       
  54 H54           -8.3079     7.7792     0.0865 H       
  55 H55           -7.5009     6.8510    -2.0456 H       
  56 H56           -0.8392     3.8296    -0.7802 H       
  57 H57           -1.0863     3.6228     2.1497 H       
  58 H58            0.4590     3.6534     1.2668 H       
  59 H59           -2.4795     5.6038     2.2854 H       
  60 H60           -2.5566     8.0635     2.2461 H       
  61 H61            1.1552     8.1371     0.1254 H       
  62 H62            1.2267     5.6774     0.1753 H       
  63 H63            1.0866    10.1606     0.1084 H       
  64 H64            0.2948    12.6374     0.4717 H       
  65 H65           -2.0249    12.5739     1.7872 H       
  66 H66           -2.4677    -2.5635    -0.0822 H       
  67 H67           -3.4740    -2.4510     2.1673 H       
  68 H68           -5.1052    -2.4576     1.4532 H       
  69 H69           -5.3560    -2.4539    -1.0692 H       
  70 H70           -3.8973    -2.4446    -2.0904 H       
  71 H71           -4.8873    -4.7204    -1.9475 H       
  72 H72           -3.2642    -4.6724    -1.2187 H       
  73 H73           -3.0256    -4.6760     1.1814 H       
  74 H74           -4.4734    -4.7266     2.2153 H       
  75 H75           -5.7520    -6.5770    -0.5285 H       
  76 H76           -4.0175    -6.7094    -0.1515 H       
  77 H77           -7.4151    -6.6264     1.2396 H       
  78 H78           -3.2591    -6.9539     2.1395 H       
  79 H79           -3.8118    -7.7205     4.4133 H       
  80 H80           -6.1662    -7.9345     5.1021 H       
  81 H81           -7.9678    -7.3883     3.5150 H       
@<TRIPOS>BOND
   1    1    2 ar
   2    1   16 1
   3    1    6 ar
   4    2    3 ar
   5    2   49 1
   6    3    4 ar
   7    3   50 1
   8    4    5 ar
   9    4    7 1
  10    5    6 ar
  11    5   10 1
  12    6   22 1
  13    7    8 1
  14    7   36 1
  15    8    9 2
  16    8   51 1
  17    9   10 1
  18    9   11 1
  19   10   13 2
  20   11   12 am
  21   11   15 2
  22   12   13 1
  23   12   14 1
  24   14   17 ar
  25   14   21 ar
  26   17   18 ar
  27   17   52 1
  28   18   19 ar
  29   18   53 1
  30   19   20 ar
  31   19   54 1
  32   20   21 ar
  33   20   55 1
  34   21   35 1
  35   22   23 1
  36   22   56 1
  37   23   24 1
  38   23   57 1
  39   23   58 1
  40   24   25 ar
  41   24   29 ar
  42   25   26 ar
  43   25   59 1
  44   26   27 ar
  45   26   60 1
  46   27   28 ar
  47   27   30 1
  48   28   29 ar
  49   28   61 1
  50   29   62 1
  51   30   31 1
  52   30   32 1
  53   31   34 2
  54   32   33 2
  55   32   63 1
  56   33   34 1
  57   33   64 1
  58   34   65 1
  59   36   37 1
  60   36   38 1
  61   36   66 1
  62   37   41 1
  63   37   67 1
  64   37   68 1
  65   38   39 1
  66   38   69 1
  67   38   70 1
  68   39   40 1
  69   39   71 1
  70   39   72 1
  71   40   41 1
  72   40   42 1
  73   41   73 1
  74   41   74 1
  75   42   43 1
  76   42   75 1
  77   42   76 1
  78   43   44 ar
  79   43   45 ar
  80   44   48 ar
  81   44   77 1
  82   45   46 ar
  83   45   78 1
  84   46   47 ar
  85   46   79 1
  86   47   48 ar
  87   47   80 1
  88   48   81 1

#	End of record

