#	Name: ASD01410169
#	Creating user name:	WinNT
#	Creation time:	15. 06. 2019 19:16

#	Modifying user name:	WinNT
#	Modification time:	15. 06. 2019 19:16

#	Program:	/corina/corina34_cracker 3.40 0067  02.08.2006

@<TRIPOS>MOLECULE
ASD01410169
  42   45    0    0    0
SMALL
NO_CHARGES


@<TRIPOS>ATOM
   1 C1            -0.0187     1.5258     0.0104 C.3     
   2 C2             0.0021    -0.0041     0.0020 C.3     
   3 C3             0.7182    -0.4975    -1.2568 C.3     
   4 C4             2.1536     0.0321    -1.2676 C.3     
   5 C5             2.1328     1.5619    -1.2592 C.3     
   6 C6             1.4167     2.0553    -0.0004 C.3     
   7 C7             3.8579     4.5265     2.5263 C.ar    
   8 C8             2.6583     3.9169     2.1557 C.ar    
   9 C9             2.1422     2.8773     2.9309 C.ar    
  10 C10            2.8198     2.4589     4.0574 C.ar    
  11 C11            4.0085     3.0675     4.4192 C.ar    
  12 C12            4.5256     4.0986     3.6552 C.ar    
  13 C13            0.7811     4.4403    -1.0085 C.2     
  14 C14            1.0115     5.7379    -0.5807 C.2     
  15 C15            1.3963     3.5622     0.0079 C.2     
  16 C16            1.9371     4.3707     0.9474 C.2     
  17 N17            1.7097     5.6830     0.6004 N.pl3   
  18 S18            0.3126     6.8723    -1.7315 S.3     
  19 C19           -0.2636     5.5600    -2.7454 C.2     
  20 C20            0.0683     4.3732    -2.2083 C.2     
  21 C21           -1.0048     5.7334    -3.9943 C.2     
  22 O22           -1.3633     4.7595    -4.6291 O.2     
  23 O23           -1.2909     6.9734    -4.4424 O.3     
  24 H24           -0.5459     1.8868    -0.8726 H       
  25 H25           -0.5289     1.8773     0.9072 H       
  26 H26            0.5293    -0.3651     0.8851 H       
  27 H27           -1.0205    -0.3814     0.0098 H       
  28 H28            0.7330    -1.5874    -1.2628 H       
  29 H29            0.1910    -0.1364    -2.1398 H       
  30 H30            2.6808    -0.3290    -0.3846 H       
  31 H31            2.6638    -0.3194    -2.1644 H       
  32 H32            3.1554     1.9392    -1.2670 H       
  33 H33            1.6057     1.9230    -2.1423 H       
  34 H34            1.9439     1.6943     0.8826 H       
  35 H35            4.2648     5.3285     1.9283 H       
  36 H36            1.2142     2.4017     2.6497 H       
  37 H37            2.4214     1.6548     4.6583 H       
  38 H38            4.5350     2.7364     5.3023 H       
  39 H39            5.4539     4.5694     3.9431 H       
  40 H40            1.9994     6.4537     1.1133 H       
  41 H41           -0.1919     3.4344    -2.6747 H       
  42 H42           -1.7832     6.9871    -5.2747 H       
@<TRIPOS>BOND
   1    1    2 1
   2    1    6 1
   3    1   24 1
   4    1   25 1
   5    2    3 1
   6    2   26 1
   7    2   27 1
   8    3    4 1
   9    3   28 1
  10    3   29 1
  11    4    5 1
  12    4   30 1
  13    4   31 1
  14    5    6 1
  15    5   32 1
  16    5   33 1
  17    6   15 1
  18    6   34 1
  19    7    8 ar
  20    7   12 ar
  21    7   35 1
  22    8    9 ar
  23    8   16 1
  24    9   10 ar
  25    9   36 1
  26   10   11 ar
  27   10   37 1
  28   11   12 ar
  29   11   38 1
  30   12   39 1
  31   13   15 1
  32   13   14 2
  33   13   20 1
  34   14   18 1
  35   14   17 1
  36   15   16 2
  37   16   17 1
  38   17   40 1
  39   18   19 1
  40   19   20 2
  41   19   21 1
  42   20   41 1
  43   21   22 2
  44   21   23 1
  45   23   42 1

#	End of record

