#	Name: ASD04910533
#	Creating user name:	WinNT
#	Creation time:	15. 06. 2019 20:56

#	Modifying user name:	WinNT
#	Modification time:	15. 06. 2019 20:56

#	Program:	/corina/corina34_cracker 3.40 0067  02.08.2006

@<TRIPOS>MOLECULE
ASD04910533
  61   63    0    0    0
SMALL
NO_CHARGES


@<TRIPOS>ATOM
   1 C1             1.0718     1.7057     0.6268 C.2     
   2 C2             0.9273     0.2090     0.5272 C.3     
   3 C3             2.3141    -0.4344     0.4667 C.3     
   4 O4             2.1712     2.2065     0.6473 O.2     
   5 O5            -0.0209     2.4829     0.6871 O.3     
   6 C6             3.2708    -2.6695     0.3038 C.2     
   7 C7             3.1290    -4.1379     0.2061 C.ar    
   8 C8             4.2631    -4.9485     0.1374 C.ar    
   9 C9             4.1239    -6.3180     0.0468 C.ar    
  10 C10            2.8635    -6.8883     0.0236 C.ar    
  11 C11            1.7351    -6.0904     0.0914 C.ar    
  12 C12            1.8605    -4.7199     0.1880 C.ar    
  13 O13            4.3768    -2.1657     0.3244 O.2     
  14 N14            2.1737    -1.8894     0.3700 N.am    
  15 C15            2.7190    -8.3850    -0.0764 C.3     
  16 C16            2.4383    -8.9642     1.3117 C.3     
  17 C17            1.1309    -8.3817     1.8525 C.3     
  18 N18            1.6081    -8.7094    -0.9747 N.pl3   
  19 C19            3.0735    -8.5097    -2.8879 C.ar    
  20 C20            1.8073    -8.7164    -2.3590 C.ar    
  21 C21            0.7366    -8.9314    -3.2252 C.ar    
  22 C22            0.9807    -8.9303    -4.5868 C.ar    
  23 C23            2.2756    -8.7164    -5.0428 C.ar    
  24 N24            3.2683    -8.5155    -4.1923 N.ar    
  25 N25            2.5326    -8.7134    -6.4189 N.pl3   
  26 C26            1.6112    -8.8089    -7.4130 C.2     
  27 N27            2.2323    -8.7698    -8.5602 N.2     
  28 C28            3.5513    -8.6499    -8.3479 C.2     
  29 C29            3.7613    -8.6076    -7.0187 C.2     
  30 C30            4.6141    -8.5705    -9.4134 C.3     
  31 F31            4.0085    -8.5257   -10.6737 F       
  32 F32            5.3801    -7.4154    -9.2228 F       
  33 F33            5.4403    -9.6965    -9.3327 F       
  34 C34            2.3167   -10.4862     1.2141 C.3     
  35 C35            3.5865    -8.6038     2.2564 C.3     
  36 H36            0.3919    -0.1633     1.4006 H       
  37 H37            0.3702    -0.0431    -0.3751 H       
  38 H38            2.8496    -0.0622    -0.4067 H       
  39 H39            2.8712    -0.1824     1.3691 H       
  40 H40            0.1221     3.4372     0.7502 H       
  41 H41            5.2475    -4.5046     0.1547 H       
  42 H42            5.0006    -6.9464    -0.0064 H       
  43 H43            0.7542    -6.5417     0.0729 H       
  44 H44            0.9791    -4.0985     0.2454 H       
  45 H45            1.2910    -2.2915     0.3535 H       
  46 H46            3.6409    -8.8136    -0.4693 H       
  47 H47            0.3129    -8.6385     1.1794 H       
  48 H48            0.9310    -8.7943     2.8414 H       
  49 H49            1.2176    -7.2974     1.9220 H       
  50 H50            0.7344    -8.9193    -0.6093 H       
  51 H51            3.9079    -8.3379    -2.2241 H       
  52 H52           -0.2599    -9.0954    -2.8424 H       
  53 H53            0.1748    -9.0940    -5.2868 H       
  54 H54            0.5440    -8.9022    -7.2767 H       
  55 H55            4.7147    -8.5113    -6.5204 H       
  56 H56            3.2121   -10.8929     0.7441 H       
  57 H57            2.2082   -10.9068     2.2138 H       
  58 H58            1.4432   -10.7433     0.6150 H       
  59 H59            3.6732    -7.5194     2.3259 H       
  60 H60            3.3866    -9.0164     3.2453 H       
  61 H61            4.5179    -9.0187     1.8711 H       
@<TRIPOS>BOND
   1    1    2 1
   2    1    4 2
   3    1    5 1
   4    2    3 1
   5    2   36 1
   6    2   37 1
   7    3   14 1
   8    3   38 1
   9    3   39 1
  10    5   40 1
  11    6    7 1
  12    6   13 2
  13    6   14 am
  14    7    8 ar
  15    7   12 ar
  16    8    9 ar
  17    8   41 1
  18    9   10 ar
  19    9   42 1
  20   10   11 ar
  21   10   15 1
  22   11   12 ar
  23   11   43 1
  24   12   44 1
  25   14   45 1
  26   15   16 1
  27   15   18 1
  28   15   46 1
  29   16   17 1
  30   16   34 1
  31   16   35 1
  32   17   47 1
  33   17   48 1
  34   17   49 1
  35   18   20 1
  36   18   50 1
  37   19   20 ar
  38   19   24 ar
  39   19   51 1
  40   20   21 ar
  41   21   22 ar
  42   21   52 1
  43   22   23 ar
  44   22   53 1
  45   23   24 ar
  46   23   25 1
  47   25   26 1
  48   25   29 1
  49   26   27 2
  50   26   54 1
  51   27   28 1
  52   28   29 2
  53   28   30 1
  54   29   55 1
  55   30   31 1
  56   30   32 1
  57   30   33 1
  58   34   56 1
  59   34   57 1
  60   34   58 1
  61   35   59 1
  62   35   60 1
  63   35   61 1

#	End of record

