#	Name: ASD03091000
#	Creating user name:	WinNT
#	Creation time:	15. 06. 2019 20:29

#	Modifying user name:	WinNT
#	Modification time:	15. 06. 2019 20:29

#	Program:	/corina/corina34_cracker 3.40 0067  02.08.2006

@<TRIPOS>MOLECULE
ASD03091000
  43   45    0    0    0
SMALL
NO_CHARGES


@<TRIPOS>ATOM
   1 C1            -0.0183     1.5030     0.0798 C.2     
   2 C2             0.0022    -0.0037     0.0999 C.3     
   3 C3             1.4515    -0.4940     0.1036 C.3     
   4 C4             2.1324    -0.0626     1.4040 C.3     
   5 O5             1.0269     2.1255     0.0695 O.2     
   6 N6            -1.1762     2.1507     0.0678 N.2     
   7 S7             0.1650     4.5422     0.0393 S.3     
   8 C8            -1.1944     3.4850     0.0500 C.2     
   9 N9            -2.2863     4.2876     0.0362 N.pl3   
  10 C10           -2.0655     5.6297     0.0185 C.2     
  11 C11           -0.7996     6.0286     0.0165 C.2     
  12 O12           -7.4226     2.2197     0.0595 O.3     
  13 C13           -7.5957     0.8841    -0.4263 C.3     
  14 C14           -6.5099    -0.0001     0.2020 C.3     
  15 O15           -5.2320     0.5197    -0.1808 O.3     
  16 C16           -5.0599     1.8652    -0.0684 C.ar    
  17 C17           -6.1540     2.7151     0.0496 C.ar    
  18 C18           -3.7764     2.3883    -0.0719 C.ar    
  19 C19           -3.5847     3.7585     0.0394 C.ar    
  20 C20           -4.6790     4.6046     0.1544 C.ar    
  21 C21           -5.9586     4.0837     0.1594 C.ar    
  22 F22           -6.6306     0.0232     1.5956 F       
  23 F23           -6.6436    -1.3130    -0.2621 F       
  24 F24           -8.8601     0.4095    -0.0616 F       
  25 F25           -7.4689     0.8687    -1.8195 F       
  26 C26           -0.2900     7.4467    -0.0014 C.3     
  27 C27            1.4737    -2.0202    -0.0017 C.3     
  28 H28           -0.5050    -0.3620     0.9957 H       
  29 H29           -0.5084    -0.3858    -0.7841 H       
  30 H30            1.9829    -0.0634    -0.7450 H       
  31 H31            3.1649    -0.4120     1.4067 H       
  32 H32            2.1166     1.0247     1.4791 H       
  33 H33            1.6010    -0.4932     2.2527 H       
  34 H34           -2.8815     6.3371     0.0064 H       
  35 H35           -2.9253     1.7295    -0.1612 H       
  36 H36           -4.5301     5.6709     0.2404 H       
  37 H37           -6.8086     4.7438     0.2487 H       
  38 H38            0.7999     7.4411     0.0012 H       
  39 H39           -0.6487     7.9504    -0.8990 H       
  40 H40           -0.6528     7.9743     0.8808 H       
  41 H41            0.9886    -2.3276    -0.9282 H       
  42 H42            2.5062    -2.3696     0.0009 H       
  43 H43            0.9423    -2.4508     0.8469 H       
@<TRIPOS>BOND
   1    1    2 1
   2    1    5 2
   3    1    6 1
   4    2    3 1
   5    2   28 1
   6    2   29 1
   7    3    4 1
   8    3   27 1
   9    3   30 1
  10    4   31 1
  11    4   32 1
  12    4   33 1
  13    6    8 2
  14    7    8 1
  15    7   11 1
  16    8    9 1
  17    9   10 1
  18    9   19 1
  19   10   11 2
  20   10   34 1
  21   11   26 1
  22   12   13 1
  23   12   17 1
  24   13   14 1
  25   13   24 1
  26   13   25 1
  27   14   15 1
  28   14   22 1
  29   14   23 1
  30   15   16 1
  31   16   17 ar
  32   16   18 ar
  33   17   21 ar
  34   18   19 ar
  35   18   35 1
  36   19   20 ar
  37   20   21 ar
  38   20   36 1
  39   21   37 1
  40   26   38 1
  41   26   39 1
  42   26   40 1
  43   27   41 1
  44   27   42 1
  45   27   43 1

#	End of record

