#	Name: ASD04220044
#	Creating user name:	WinNT
#	Creation time:	15. 06. 2019 20:48

#	Modifying user name:	WinNT
#	Modification time:	15. 06. 2019 20:48

#	Program:	/corina/corina34_cracker 3.40 0067  02.08.2006

@<TRIPOS>MOLECULE
ASD04220044
  38   40    0    0    0
SMALL
NO_CHARGES


@<TRIPOS>ATOM
   1 C1            -0.0168     1.3877     0.0097 C.ar    
   2 C2             0.0021    -0.0041     0.0020 C.ar    
   3 C3             1.2089    -0.6756    -0.0131 C.ar    
   4 C4             2.4042     0.0405    -0.0208 C.ar    
   5 C5             2.3909     1.4393    -0.0131 C.ar    
   6 C6             1.1434     2.0989     0.0024 C.ar    
   7 S7             4.0820    -0.4966    -0.0407 S.3     
   8 C8             4.6292     1.1743    -0.0373 C.2     
   9 N9             3.6285     1.9725    -0.0229 N.2     
  10 C10            6.0730     1.6060    -0.0492 C.3     
  11 O11            6.5426     1.7354     1.2942 O.3     
  12 C12            7.8356     2.1206     1.4616 C.ar    
  13 C13            8.6383     2.3696     0.3521 C.ar    
  14 C14            8.3536     2.2710     2.7331 C.ar    
  15 C15            9.6790     2.6664     2.9027 C.ar    
  16 C16           10.4915     2.9128     1.7911 C.ar    
  17 C17            9.9342     2.7562     0.5040 C.ar    
  18 S18           10.6323     2.9463     4.3577 S.3     
  19 C19           12.0289     3.3667     3.3758 C.2     
  20 N20           11.7413     3.2849     2.1310 N.2     
  21 C21           13.3748     3.7674     3.9225 C.3     
  22 O22           -1.1652    -0.7011     0.0099 O.3     
  23 S23           -1.7105    -1.0110    -1.3768 S.o2    
  24 O24           -3.0954    -1.4200    -1.2012 O.co2   
  25 O25           -1.5972     0.2126    -2.1552 O.co2   
  26 O26           -0.8898    -2.0819    -1.9206 O.co2   
  27 H27           -0.9627     1.9089     0.0170 H       
  28 H28            1.2261    -1.7554    -0.0187 H       
  29 H29            1.1091     3.1784     0.0085 H       
  30 H30            6.6709     0.8601    -0.5729 H       
  31 H31            6.1611     2.5654    -0.5589 H       
  32 H32            8.2282     2.2543    -0.6404 H       
  33 H33            7.7315     2.0827     3.5956 H       
  34 H34           10.5430     2.9411    -0.3686 H       
  35 H35           13.9937     2.8794     4.0514 H       
  36 H36           13.8609     4.4510     3.2265 H       
  37 H37           13.2435     4.2615     4.8851 H       
  38 Na38          18.9937     9.4510     9.8851 Du      
@<TRIPOS>BOND
   1    1    2 ar
   2    1    6 ar
   3    1   27 1
   4    2    3 ar
   5    2   22 1
   6    3    4 ar
   7    3   28 1
   8    4    5 ar
   9    4    7 1
  10    5    6 ar
  11    5    9 1
  12    6   29 1
  13    7    8 1
  14    8    9 2
  15    8   10 1
  16   10   11 1
  17   10   30 1
  18   10   31 1
  19   11   12 1
  20   12   13 ar
  21   12   14 ar
  22   13   17 ar
  23   13   32 1
  24   14   15 ar
  25   14   33 1
  26   15   16 ar
  27   15   18 1
  28   16   17 ar
  29   16   20 1
  30   17   34 1
  31   18   19 1
  32   19   20 2
  33   19   21 1
  34   21   35 1
  35   21   36 1
  36   21   37 1
  37   22   23 1
  38   23   24 ar
  39   23   25 ar
  40   23   26 ar

#	End of record

