#	Name: ASD01152321
#	Creating user name:	WinNT
#	Creation time:	15. 06. 2019 19:05

#	Modifying user name:	WinNT
#	Modification time:	15. 06. 2019 19:05

#	Program:	/corina/corina34_cracker 3.40 0067  02.08.2006

@<TRIPOS>MOLECULE
ASD01152321
  53   56    0    0    0
SMALL
NO_CHARGES


@<TRIPOS>ATOM
   1 C1             0.4555     1.1357    -0.4327 C.2     
   2 N2             0.3441    -0.1627    -0.3330 N.2     
   3 N3            -0.9237    -0.7469    -0.2286 N.am    
   4 C4            -2.0356     0.0093    -0.2292 C.2     
   5 N5            -1.9648     1.3497    -0.3304 N.am    
   6 C6            -0.7642     1.9577    -0.4265 C.2     
   7 O7            -0.6919     3.1690    -0.5183 O.2     
   8 O8            -3.1233    -0.5268    -0.1372 O.2     
   9 C9            -1.0356    -2.1376    -0.1227 C.ar    
  10 C10           -3.1922     2.1495    -0.3290 C.3     
  11 C11           -3.5441     2.5270     1.0868 C.ar    
  12 C12           -3.0544     3.6995     1.6314 C.ar    
  13 C13           -3.3768     4.0462     2.9299 C.ar    
  14 C14           -4.1899     3.2197     3.6847 C.ar    
  15 C15           -4.6798     2.0464     3.1392 C.ar    
  16 C16           -4.3613     1.7035     1.8387 C.ar    
  17 C17           -0.3847    -2.8121     0.9021 C.ar    
  18 C18           -1.8027    -2.8461    -1.0391 C.ar    
  19 C19           -1.9110    -4.2184    -0.9317 C.ar    
  20 C20           -1.2572    -4.8877     0.0870 C.ar    
  21 C21           -0.4972    -4.1850     1.0038 C.ar    
  22 Cl22          -4.5949     3.6543     5.3159 Cl      
  23 C23            0.4438    -2.0470     1.9018 C.3     
  24 C24           -0.4435    -1.6037     3.0667 C.3     
  25 C25            0.3654    -0.7259     4.0238 C.3     
  26 O26           -1.5637    -0.8633     2.5644 O.3     
  27 C27           -2.7572    -1.5603     2.9753 C.3     
  28 C28           -2.2726    -2.4047     4.1803 C.3     
  29 O29           -0.9329    -2.7592     3.7680 O.3     
  30 O30            1.6789     1.7174    -0.5347 O.3     
  31 C31            2.8165     0.8610    -0.4146 C.3     
  32 H32           -3.0375     3.0534    -0.9183 H       
  33 H33           -4.0055     1.5678    -0.7628 H       
  34 H34           -2.4193     4.3444     1.0422 H       
  35 H35           -2.9938     4.9620     3.3553 H       
  36 H36           -5.3146     1.4008     3.7279 H       
  37 H37           -4.7436     0.7877     1.4127 H       
  38 H38           -2.3140    -2.3241    -1.8343 H       
  39 H39           -2.5071    -4.7698    -1.6437 H       
  40 H40           -1.3442    -5.9610     0.1692 H       
  41 H41            0.0120    -4.7106     1.7981 H       
  42 H42            1.2429    -2.6866     2.2766 H       
  43 H43            0.8760    -1.1700     1.4201 H       
  44 H44            0.7293     0.1527     3.4912 H       
  45 H45           -0.2690    -0.4116     4.8526 H       
  46 H46            1.2123    -1.2936     4.4095 H       
  47 H47           -3.5282    -0.8547     3.2847 H       
  48 H48           -3.1218    -2.2046     2.1753 H       
  49 H49           -2.2574    -1.8093     5.0931 H       
  50 H50           -2.8896    -3.2943     4.3067 H       
  51 H51            2.7582     0.3089     0.5235 H       
  52 H52            2.8328     0.1595    -1.2486 H       
  53 H53            3.7261     1.4614    -0.4268 H       
@<TRIPOS>BOND
   1    1    2 2
   2    1   30 1
   3    1    6 1
   4    2    3 1
   5    3    4 am
   6    3    9 1
   7    4    5 am
   8    4    8 2
   9    5    6 am
  10    5   10 1
  11    6    7 2
  12    9   17 ar
  13    9   18 ar
  14   10   11 1
  15   10   32 1
  16   10   33 1
  17   11   12 ar
  18   11   16 ar
  19   12   13 ar
  20   12   34 1
  21   13   14 ar
  22   13   35 1
  23   14   15 ar
  24   14   22 1
  25   15   16 ar
  26   15   36 1
  27   16   37 1
  28   17   23 1
  29   17   21 ar
  30   18   19 ar
  31   18   38 1
  32   19   20 ar
  33   19   39 1
  34   20   21 ar
  35   20   40 1
  36   21   41 1
  37   23   24 1
  38   23   42 1
  39   23   43 1
  40   24   25 1
  41   24   26 1
  42   24   29 1
  43   25   44 1
  44   25   45 1
  45   25   46 1
  46   26   27 1
  47   27   28 1
  48   27   47 1
  49   27   48 1
  50   28   29 1
  51   28   49 1
  52   28   50 1
  53   30   31 1
  54   31   51 1
  55   31   52 1
  56   31   53 1

#	End of record

