#	Name: ASD03090539
#	Creating user name:	WinNT
#	Creation time:	15. 06. 2019 20:29

#	Modifying user name:	WinNT
#	Modification time:	15. 06. 2019 20:29

#	Program:	/corina/corina34_cracker 3.40 0067  02.08.2006

@<TRIPOS>MOLECULE
ASD03090539
  43   46    0    0    0
SMALL
NO_CHARGES


@<TRIPOS>ATOM
   1 C1            -0.3985     1.4809     1.3452 C.2     
   2 C2            -0.4705     0.0110     1.6697 C.3     
   3 O3             0.6796     2.0211     1.2153 O.2     
   4 N4            -1.5321     2.1940     1.1941 N.am    
   5 N5             4.7396    -2.0207     2.3437 N.pl3   
   6 C6             4.9093    -1.7911     3.6819 C.2     
   7 C7             3.8086    -1.2150     4.1905 C.2     
   8 C8             2.8563    -1.0632     3.0878 C.ar    
   9 C9             1.5638    -0.5447     2.9861 C.ar    
  10 C10            0.9246    -0.5483     1.7786 C.ar    
  11 C11            1.5499    -1.0636     0.6512 C.ar    
  12 C12            2.8243    -1.5804     0.7291 C.ar    
  13 C13            3.4940    -1.5869     1.9486 C.ar    
  14 C14           -1.4681     3.5765     1.0131 C.ar    
  15 C15           -0.3072     4.2613     1.3537 C.ar    
  16 C16           -0.2544     5.6312     1.1703 C.ar    
  17 C17           -1.3740     6.2743     0.6482 C.ar    
  18 C18           -2.4968     5.5265     0.3315 C.ar    
  19 N19           -2.5110     4.2199     0.5143 N.ar    
  20 O20           -1.3657     7.6197     0.4521 O.3     
  21 C21           -0.2311     8.3020     0.7581 C.ar    
  22 C22            0.7516     8.4835    -0.2045 C.ar    
  23 C23            1.9046     9.1783     0.1095 C.ar    
  24 C24            2.0785     9.6925     1.3828 C.ar    
  25 C25            1.1006     9.5121     2.3429 C.ar    
  26 C26           -0.0561     8.8232     2.0320 C.ar    
  27 Cl27           3.1353     9.4058    -1.0936 Cl      
  28 H28           -0.9922    -0.1269     2.6167 H       
  29 H29           -1.0100    -0.5097     0.8785 H       
  30 H30           -2.3925     1.7464     1.2110 H       
  31 H31            5.4000    -2.4251     1.7595 H       
  32 H32            5.7970    -2.0373     4.2455 H       
  33 H33            3.6545    -0.9194     5.2177 H       
  34 H34            1.0708    -0.1430     3.8590 H       
  35 H35            1.0317    -1.0594    -0.2963 H       
  36 H36            3.3021    -1.9792    -0.1535 H       
  37 H37            0.5425     3.7304     1.7567 H       
  38 H38            0.6341     6.1892     1.4264 H       
  39 H39           -3.3689     6.0183    -0.0734 H       
  40 H40            0.6160     8.0820    -1.1979 H       
  41 H41            2.9799    10.2352     1.6266 H       
  42 H42            1.2387     9.9139     3.3358 H       
  43 H43           -0.8215     8.6865     2.7816 H       
@<TRIPOS>BOND
   1    1    2 1
   2    1    3 2
   3    1    4 am
   4    2   10 1
   5    2   28 1
   6    2   29 1
   7    4   14 1
   8    4   30 1
   9    5    6 1
  10    5   13 1
  11    5   31 1
  12    6    7 2
  13    6   32 1
  14    7    8 1
  15    7   33 1
  16    8    9 ar
  17    8   13 ar
  18    9   10 ar
  19    9   34 1
  20   10   11 ar
  21   11   12 ar
  22   11   35 1
  23   12   13 ar
  24   12   36 1
  25   14   15 ar
  26   14   19 ar
  27   15   16 ar
  28   15   37 1
  29   16   17 ar
  30   16   38 1
  31   17   18 ar
  32   17   20 1
  33   18   19 ar
  34   18   39 1
  35   20   21 1
  36   21   22 ar
  37   21   26 ar
  38   22   23 ar
  39   22   40 1
  40   23   24 ar
  41   23   27 1
  42   24   25 ar
  43   24   41 1
  44   25   26 ar
  45   25   42 1
  46   26   43 1

#	End of record

