#	Name: ASD03730260
#	Creating user name:	WinNT
#	Creation time:	15. 06. 2019 20:44

#	Modifying user name:	WinNT
#	Modification time:	15. 06. 2019 20:44

#	Program:	/corina/corina34_cracker 3.40 0067  02.08.2006

@<TRIPOS>MOLECULE
ASD03730260
  69   75    0    0    0
SMALL
NO_CHARGES


@<TRIPOS>ATOM
   1 N1            -0.3910     1.3881     3.6413 N.3     
   2 C2            -0.2523    -0.0300     4.0480 C.3     
   3 O3             0.3567    -0.6481     2.9000 O.3     
   4 C4             1.0717     0.3261     2.2650 C.ar    
   5 C5             0.6326     1.5782     2.6927 C.ar    
   6 C6             2.0918     0.2387     1.3328 C.ar    
   7 C7             2.6765     1.3898     0.8141 C.ar    
   8 C8             2.2161     2.6330     1.2367 C.ar    
   9 C9             1.2069     2.7264     2.1726 C.ar    
  10 O10            3.6953     1.5199    -0.0841 O.3     
  11 C11            3.0074     3.6647     0.4788 C.3     
  12 C12            3.6716     2.8489    -0.6391 C.3     
  13 N13            2.6131     5.9153     0.4279 N.am    
  14 C14            2.1367     4.7576    -0.0720 C.2     
  15 C15            4.0182     4.3593     1.3416 C.ar    
  16 C16            5.0827     3.9196     2.1164 C.ar    
  17 C17            5.8559     4.8424     2.8203 C.ar    
  18 C18            5.5566     6.1881     2.7409 C.ar    
  19 C19            4.4984     6.6247     1.9701 C.ar    
  20 C20            3.7166     5.7142     1.2612 C.ar    
  21 O21            1.1912     4.6247    -0.8200 O.2     
  22 C22            5.3967     2.4717     2.1959 C.ar    
  23 C23            5.3034     1.8030     3.4153 C.ar    
  24 C24            5.5959     0.4572     3.4862 C.ar    
  25 C25            5.9830    -0.2316     2.3444 C.ar    
  26 C26            6.0772     0.4321     1.1284 C.ar    
  27 C27            5.7799     1.7764     1.0503 C.ar    
  28 O28            6.2706    -1.5574     2.4172 O.3     
  29 C29            7.5581    -1.9186     2.6584 C.ar    
  30 C30            8.5129    -0.9488     2.9295 C.ar    
  31 C31            9.8211    -1.3187     3.1743 C.ar    
  32 C32           10.1797    -2.6539     3.1489 C.ar    
  33 C33            9.2302    -3.6222     2.8790 C.ar    
  34 C34            7.9194    -3.2582     2.6396 C.ar    
  35 C35           -0.2162     2.2851     4.7914 C.3     
  36 C36            1.2472     2.2630     5.2376 C.3     
  37 C37            1.4293     3.1973     6.4355 C.3     
  38 C38            2.8926     3.1752     6.8816 C.3     
  39 C39            3.0748     4.1094     8.0795 C.3     
  40 H40            0.3953    -0.1179     4.9204 H       
  41 H41           -1.2294    -0.4697     4.2479 H       
  42 H42            2.4367    -0.7311     1.0059 H       
  43 H43            0.8639     3.6966     2.5003 H       
  44 H44            4.6833     3.2065    -0.8304 H       
  45 H45            3.0712     2.8779    -1.5484 H       
  46 H46            2.2343     6.7864     0.2317 H       
  47 H47            6.6850     4.5060     3.4252 H       
  48 H48            6.1544     6.9036     3.2859 H       
  49 H49            4.2742     7.6797     1.9160 H       
  50 H50            5.0028     2.3383     4.3038 H       
  51 H51            5.5242    -0.0614     4.4309 H       
  52 H52            6.3792    -0.1059     0.2420 H       
  53 H53            5.8487     2.2911     0.1033 H       
  54 H54            8.2335     0.0942     2.9487 H       
  55 H55           10.5646    -0.5643     3.3853 H       
  56 H56           11.2032    -2.9409     3.3398 H       
  57 H57            9.5130    -4.6643     2.8594 H       
  58 H58            7.1773    -4.0152     2.4333 H       
  59 H59           -0.4938     3.2998     4.5063 H       
  60 H60           -0.8513     1.9517     5.6121 H       
  61 H61            1.5248     1.2482     5.5228 H       
  62 H62            1.8823     2.5964     4.4169 H       
  63 H63            1.1517     4.2120     6.1503 H       
  64 H64            0.7942     2.8638     7.2562 H       
  65 H65            3.1703     2.1604     7.1668 H       
  66 H66            3.5278     3.5086     6.0609 H       
  67 H67            4.1173     4.0937     8.3973 H       
  68 H68            2.7971     5.1242     7.7943 H       
  69 H69            2.4396     3.7760     8.9002 H       
@<TRIPOS>BOND
   1    1    2 1
   2    1    5 1
   3    1   35 1
   4    2    3 1
   5    2   40 1
   6    2   41 1
   7    3    4 1
   8    4    5 ar
   9    4    6 ar
  10    5    9 ar
  11    6    7 ar
  12    6   42 1
  13    7    8 ar
  14    7   10 1
  15    8    9 ar
  16    8   11 1
  17    9   43 1
  18   10   12 1
  19   11   12 1
  20   11   14 1
  21   11   15 1
  22   12   44 1
  23   12   45 1
  24   13   14 am
  25   13   20 1
  26   13   46 1
  27   14   21 2
  28   15   16 ar
  29   15   20 ar
  30   16   17 ar
  31   16   22 1
  32   17   18 ar
  33   17   47 1
  34   18   19 ar
  35   18   48 1
  36   19   20 ar
  37   19   49 1
  38   22   23 ar
  39   22   27 ar
  40   23   24 ar
  41   23   50 1
  42   24   25 ar
  43   24   51 1
  44   25   26 ar
  45   25   28 1
  46   26   27 ar
  47   26   52 1
  48   27   53 1
  49   28   29 1
  50   29   30 ar
  51   29   34 ar
  52   30   31 ar
  53   30   54 1
  54   31   32 ar
  55   31   55 1
  56   32   33 ar
  57   32   56 1
  58   33   34 ar
  59   33   57 1
  60   34   58 1
  61   35   36 1
  62   35   59 1
  63   35   60 1
  64   36   37 1
  65   36   61 1
  66   36   62 1
  67   37   38 1
  68   37   63 1
  69   37   64 1
  70   38   39 1
  71   38   65 1
  72   38   66 1
  73   39   67 1
  74   39   68 1
  75   39   69 1

#	End of record

