#	Name: ASD07301093
#	Creating user name:	WinNT
#	Creation time:	15. 06. 2019 21:10

#	Modifying user name:	WinNT
#	Modification time:	15. 06. 2019 21:10

#	Program:	/corina/corina34_cracker 3.40 0067  02.08.2006

@<TRIPOS>MOLECULE
ASD07301093
  35   36    0    0    0
SMALL
NO_CHARGES


@<TRIPOS>ATOM
   1 C1            -0.0031     1.4403    -0.2650 C.2     
   2 C2             0.0018    -0.0036     0.0065 C.2     
   3 C3             1.2617    -0.6112     0.2692 C.2     
   4 C4             2.3637     0.1833     0.2501 C.2     
   5 N5             2.2574     1.5100    -0.0109 N.pl3   
   6 N6             1.1418     2.0928    -0.2524 N.2     
   7 C7            -1.2671     2.1464    -0.5530 C.2     
   8 O8            -2.3167     1.5328    -0.5668 O.2     
   9 N9            -1.2578     3.4712    -0.8004 N.am    
  10 C10            3.3546     3.6653    -0.1133 C.ar    
  11 C11            3.4247     2.2811    -0.0175 C.ar    
  12 C12            4.6744     1.6725     0.0724 C.ar    
  13 C13            5.8011     2.4786     0.0623 C.ar    
  14 C14            5.6499     3.8492    -0.0357 C.ar    
  15 N15            4.4519     4.3948    -0.1193 N.ar    
  16 O16           -1.0317    -0.6548     0.0072 O.2     
  17 C17           -2.5122     4.1719    -1.0862 C.3     
  18 O18            1.3591    -1.9418     0.5309 O.3     
  19 C19            2.6672    -2.4594     0.7824 C.3     
  20 O20           -0.0354     4.1858    -0.7843 O.3     
  21 C21            0.6229     4.2401    -2.0514 C.3     
  22 H22            3.3351    -0.2463     0.4454 H       
  23 H23            2.3913     4.1479    -0.1880 H       
  24 H24            4.7629     0.5988     0.1484 H       
  25 H25            6.7862     2.0412     0.1307 H       
  26 H26            6.5249     4.4821    -0.0436 H       
  27 H27           -2.9466     4.5339    -0.1543 H       
  28 H28           -2.3145     5.0160    -1.7469 H       
  29 H29           -3.2088     3.4872    -1.5699 H       
  30 H30            2.6031    -3.5301     0.9762 H       
  31 H31            3.3004    -2.2848    -0.0875 H       
  32 H32            3.0957    -1.9581     1.6502 H       
  33 H33            0.8466     3.2279    -2.3883 H       
  34 H34           -0.0262     4.7296    -2.7775 H       
  35 H35            1.5506     4.8042    -1.9551 H       
@<TRIPOS>BOND
   1    1    2 1
   2    1    6 2
   3    1    7 1
   4    2    3 1
   5    2   16 2
   6    3    4 2
   7    3   18 1
   8    4    5 1
   9    4   22 1
  10    5    6 1
  11    5   11 1
  12    7    8 2
  13    7    9 am
  14    9   17 1
  15    9   20 1
  16   10   11 ar
  17   10   15 ar
  18   10   23 1
  19   11   12 ar
  20   12   13 ar
  21   12   24 1
  22   13   14 ar
  23   13   25 1
  24   14   15 ar
  25   14   26 1
  26   17   27 1
  27   17   28 1
  28   17   29 1
  29   18   19 1
  30   19   30 1
  31   19   31 1
  32   19   32 1
  33   20   21 1
  34   21   33 1
  35   21   34 1
  36   21   35 1

#	End of record

