#	Name: ASD02198505
#	Creating user name:	WinNT
#	Creation time:	15. 06. 2019 20:19

#	Modifying user name:	WinNT
#	Modification time:	15. 06. 2019 20:19

#	Program:	/corina/corina34_cracker 3.40 0067  02.08.2006

@<TRIPOS>MOLECULE
ASD02198505
  40   43    0    0    0
SMALL
NO_CHARGES


@<TRIPOS>ATOM
   1 C1             0.0100     2.4396    -0.3041 C.2     
   2 C2            -0.3982     1.1528    -0.1766 C.2     
   3 N3             0.4974     0.1570     0.0173 N.pl3   
   4 N4             1.7621     0.3523     0.0925 N.2     
   5 C5             2.2917     1.5517    -0.0151 C.2     
   6 C6             1.3999     2.7030    -0.2280 C.2     
   7 C7             0.0189    -1.1515     0.1425 C.ar    
   8 C8            -1.8161    -2.6809     0.3539 C.ar    
   9 C9            -0.9275    -3.7397     0.3910 C.ar    
  10 C10            0.4336    -3.5076     0.3094 C.ar    
  11 C11            0.9093    -2.2173     0.1853 C.ar    
  12 C12            3.7540     1.7396     0.0770 C.2     
  13 N13            4.6407     1.6644    -0.9536 N.pl3   
  14 N14            5.9067     1.9100    -0.3974 N.2     
  15 C15            5.7303     2.1121     0.8832 C.2     
  16 N16            4.4361     2.0161     1.1713 N.2     
  17 C17            4.3491     1.3964    -2.2970 C.ar    
  18 C18            3.4309     0.4078    -2.6258 C.ar    
  19 O19            1.8396     3.8378    -0.3350 O.2     
  20 C20            4.9732     2.1226    -3.3028 C.ar    
  21 C21            4.6831     1.8562    -4.6265 C.ar    
  22 C22            3.7723     0.8675    -4.9509 C.ar    
  23 C23            3.1452     0.1462    -3.9515 C.ar    
  24 C24           -1.3470    -1.3877     0.2299 C.ar    
  25 C25           -3.2982    -2.9387     0.4426 C.3     
  26 F26           -3.5327    -4.3179     0.4387 F       
  27 F27           -3.7980    -2.3841     1.6258 F       
  28 F28           -3.9398    -2.3534    -0.6542 F       
  29 H29           -0.7008     3.2370    -0.4629 H       
  30 H30           -1.4514     0.9197    -0.2301 H       
  31 H31           -1.2971    -4.7502     0.4839 H       
  32 H32            1.1249    -4.3368     0.3387 H       
  33 H33            1.9721    -2.0368     0.1213 H       
  34 H34            6.5136     2.3280     1.5947 H       
  35 H35            2.9411    -0.1562    -1.8458 H       
  36 H36            5.6843     2.8951    -3.0501 H       
  37 H37            5.1679     2.4209    -5.4092 H       
  38 H38            3.5469     0.6613    -5.9868 H       
  39 H39            2.4346    -0.6256    -4.2080 H       
  40 H40           -2.0415    -0.5612     0.2014 H       
@<TRIPOS>BOND
   1    1    2 2
   2    1    6 1
   3    1   29 1
   4    2    3 1
   5    2   30 1
   6    3    4 1
   7    3    7 1
   8    4    5 2
   9    5    6 1
  10    5   12 1
  11    6   19 2
  12    7   24 ar
  13    7   11 ar
  14    8    9 ar
  15    8   25 1
  16    8   24 ar
  17    9   10 ar
  18    9   31 1
  19   10   11 ar
  20   10   32 1
  21   11   33 1
  22   12   13 1
  23   12   16 2
  24   13   14 1
  25   13   17 1
  26   14   15 2
  27   15   16 1
  28   15   34 1
  29   17   20 ar
  30   17   18 ar
  31   18   23 ar
  32   18   35 1
  33   20   21 ar
  34   20   36 1
  35   21   22 ar
  36   21   37 1
  37   22   23 ar
  38   22   38 1
  39   23   39 1
  40   24   40 1
  41   25   26 1
  42   25   27 1
  43   25   28 1

#	End of record

