#	Name: ASD05633008
#	Creating user name:	WinNT
#	Creation time:	15. 06. 2019 21:01

#	Modifying user name:	WinNT
#	Modification time:	15. 06. 2019 21:01

#	Program:	/corina/corina34_cracker 3.40 0067  02.08.2006

@<TRIPOS>MOLECULE
ASD05633008
  47   49    0    0    0
SMALL
NO_CHARGES


@<TRIPOS>ATOM
   1 C1            -0.0225     1.4396     0.4648 C.ar    
   2 C2             0.0188     0.0626     0.3390 C.ar    
   3 C3            -1.1515    -0.6597     0.1850 C.ar    
   4 C4            -2.3678    -0.0098     0.1558 C.ar    
   5 C5            -2.4165     1.3796     0.2827 C.ar    
   6 C6            -1.2330     2.1014     0.4430 C.ar    
   7 S7             1.4736     2.3496     0.6605 S.o2    
   8 O8             1.0796     3.5274     1.3510 O.2     
   9 O9             2.3739     1.4214     1.2497 O.2     
  10 C10            1.9868     2.7466    -1.0335 C.3     
  11 C11           -3.7167     2.0828     0.2519 C.2     
  12 O12           -3.7560     3.2926     0.3626 O.2     
  13 N13           -4.8582     1.3824     0.1011 N.am    
  14 C14           -6.1466     2.0792     0.0706 C.3     
  15 C15           -7.2300     1.1536     0.5611 C.ar    
  16 C16           -7.0913    -0.1935     0.4270 C.ar    
  17 C17           -8.0826    -1.0651     0.8746 C.ar    
  18 C18           -9.2180    -0.5942     1.4587 C.ar    
  19 C19           -9.3967     0.7910     1.6149 C.ar    
  20 C20           -8.3864     1.6769     1.1646 C.ar    
  21 C21           -6.4575     2.5139    -1.3630 C.3     
  22 C22          -10.5556     1.3145     2.2132 C.ar    
  23 C23          -10.6941     2.6617     2.3477 C.ar    
  24 C24           -9.7029     3.5332     1.9000 C.ar    
  25 C25           -8.5650     3.0621     1.3207 C.ar    
  26 C26            3.2711     3.5342    -0.9978 C.2     
  27 O27            3.7873     3.8004     0.0618 O.2     
  28 O28            3.8417     3.9399    -2.1430 O.3     
  29 H29            0.9686    -0.4511     0.3608 H       
  30 H30           -1.1124    -1.7345     0.0870 H       
  31 H31           -3.2804    -0.5745     0.0348 H       
  32 H32           -1.2638     3.1765     0.5417 H       
  33 H33            2.1422     1.8234    -1.5918 H       
  34 H34            1.2110     3.3386    -1.5189 H       
  35 H35           -4.8268     0.4169     0.0128 H       
  36 H36           -6.0999     2.9574     0.7146 H       
  37 H37           -6.1998    -0.5932    -0.0334 H       
  38 H38           -7.9478    -2.1300     0.7558 H       
  39 H39           -9.9780    -1.2815     1.8000 H       
  40 H40           -7.4160     3.0323    -1.3857 H       
  41 H41           -5.6738     3.1833    -1.7177 H       
  42 H42           -6.5041     1.6356    -2.0069 H       
  43 H43          -11.3323     0.6513     2.5641 H       
  44 H44          -11.5857     3.0614     2.8078 H       
  45 H45           -9.8380     4.5982     2.0181 H       
  46 H46           -7.8053     3.7494     0.9789 H       
  47 H47            4.6648     4.4422    -2.0695 H       
@<TRIPOS>BOND
   1    1    2 ar
   2    1    7 1
   3    1    6 ar
   4    2    3 ar
   5    2   29 1
   6    3    4 ar
   7    3   30 1
   8    4    5 ar
   9    4   31 1
  10    5    6 ar
  11    5   11 1
  12    6   32 1
  13    7    8 2
  14    7    9 2
  15    7   10 1
  16   10   26 1
  17   10   33 1
  18   10   34 1
  19   11   12 2
  20   11   13 am
  21   13   14 1
  22   13   35 1
  23   14   15 1
  24   14   21 1
  25   14   36 1
  26   15   16 ar
  27   15   20 ar
  28   16   17 ar
  29   16   37 1
  30   17   18 ar
  31   17   38 1
  32   18   19 ar
  33   18   39 1
  34   19   20 ar
  35   19   22 ar
  36   20   25 ar
  37   21   40 1
  38   21   41 1
  39   21   42 1
  40   22   23 ar
  41   22   43 1
  42   23   24 ar
  43   23   44 1
  44   24   25 ar
  45   24   45 1
  46   25   46 1
  47   26   27 2
  48   26   28 1
  49   28   47 1

#	End of record

