#	Name: ASD01230682
#	Creating user name:	WinNT
#	Creation time:	15. 06. 2019 19:14

#	Modifying user name:	WinNT
#	Modification time:	15. 06. 2019 19:14

#	Program:	/corina/corina34_cracker 3.40 0067  02.08.2006

@<TRIPOS>MOLECULE
ASD01230682
  50   54    0    0    0
SMALL
NO_CHARGES


@<TRIPOS>ATOM
   1 C1             0.0238     1.5929    -0.8701 C.3     
   2 C2            -0.1153     0.1868    -0.2802 C.3     
   3 C3            -1.5090    -0.3762    -0.5202 C.3     
   4 C4            -2.5703     0.7096    -0.6312 C.3     
   5 N5            -2.1903     1.9053     0.1246 N.pl3   
   6 C6            -0.9770     2.4808    -0.1506 C.2     
   7 C7            -3.0679     2.4397     1.1628 C.3     
   8 C8            -3.3023     3.9307     0.9144 C.3     
   9 S9            -1.7050     4.7795     0.8046 S.o2    
  10 N10           -0.6754     3.6889     0.1240 N.am    
  11 C11            1.4221     2.1081    -0.6453 C.ar    
  12 C12            2.2154     2.4454    -1.7263 C.ar    
  13 C13            3.4976     2.9175    -1.5231 C.ar    
  14 C14            3.9891     3.0534    -0.2325 C.ar    
  15 C15            3.1907     2.7145     0.8506 C.ar    
  16 C16            1.9074     2.2479     0.6419 C.ar    
  17 O17            5.2501     3.5170    -0.0299 O.3     
  18 C18            5.4263     4.8608     0.0796 C.ar    
  19 C19            6.7042     5.3907     0.1787 C.ar    
  20 C20            6.8855     6.7533     0.2933 C.ar    
  21 C21            5.7875     7.6092     0.3111 C.ar    
  22 C22            4.5119     7.0698     0.2035 C.ar    
  23 C23            4.3280     5.7103     0.0871 C.ar    
  24 O24           -1.7688     5.8353    -0.1442 O.2     
  25 O25           -1.1697     4.9988     2.1025 O.2     
  26 O26            5.7400     8.9653     0.4329 O.3     
  27 C27            4.4651     9.4375    -0.0348 C.3     
  28 C28            3.5351     8.2296     0.2283 C.3     
  29 H29           -0.1968     1.5715    -1.9373 H       
  30 H30            0.6201    -0.4699    -0.7450 H       
  31 H31            0.0728     0.2293     0.7926 H       
  32 H32           -1.5004    -0.9555    -1.4435 H       
  33 H33           -1.7681    -1.0384     0.3059 H       
  34 H34           -2.6993     0.9765    -1.6801 H       
  35 H35           -3.5142     0.3270    -0.2428 H       
  36 H36           -4.0219     1.9130     1.1387 H       
  37 H37           -2.6018     2.3028     2.1385 H       
  38 H38           -3.8491     4.0623    -0.0192 H       
  39 H39           -3.8810     4.3499     1.7375 H       
  40 H40            1.8324     2.3394    -2.7306 H       
  41 H41            4.1171     3.1802    -2.3678 H       
  42 H42            3.5710     2.8190     1.8560 H       
  43 H43            1.2856     1.9840     1.4846 H       
  44 H44            7.5612     4.7335     0.1664 H       
  45 H45            7.8838     7.1582     0.3700 H       
  46 H46            3.3302     5.3044     0.0104 H       
  47 H47            4.1412    10.3063     0.5382 H       
  48 H48            4.5058     9.6689    -1.0992 H       
  49 H49            2.7924     8.1302    -0.5634 H       
  50 H50            3.0545     8.3133     1.2030 H       
@<TRIPOS>BOND
   1    1    2 1
   2    1   11 1
   3    1    6 1
   4    1   29 1
   5    2    3 1
   6    2   30 1
   7    2   31 1
   8    3    4 1
   9    3   32 1
  10    3   33 1
  11    4    5 1
  12    4   34 1
  13    4   35 1
  14    5    6 1
  15    5    7 1
  16    6   10 2
  17    7    8 1
  18    7   36 1
  19    7   37 1
  20    8    9 1
  21    8   38 1
  22    8   39 1
  23    9   10 am
  24    9   24 2
  25    9   25 2
  26   11   12 ar
  27   11   16 ar
  28   12   13 ar
  29   12   40 1
  30   13   14 ar
  31   13   41 1
  32   14   15 ar
  33   14   17 1
  34   15   16 ar
  35   15   42 1
  36   16   43 1
  37   17   18 1
  38   18   19 ar
  39   18   23 ar
  40   19   20 ar
  41   19   44 1
  42   20   21 ar
  43   20   45 1
  44   21   22 ar
  45   21   26 1
  46   22   23 ar
  47   22   28 1
  48   23   46 1
  49   26   27 1
  50   27   28 1
  51   27   47 1
  52   27   48 1
  53   28   49 1
  54   28   50 1

#	End of record

