#	Name: ASD03331875
#	Creating user name:	WinNT
#	Creation time:	15. 06. 2019 20:40

#	Modifying user name:	WinNT
#	Modification time:	15. 06. 2019 20:40

#	Program:	/corina/corina34_cracker 3.40 0067  02.08.2006

@<TRIPOS>MOLECULE
ASD03331875
  60   62    0    0    0
SMALL
NO_CHARGES


@<TRIPOS>ATOM
   1 C1            -0.3271     1.1638     0.8278 C.2     
   2 N2            -0.3592    -0.1696     1.0594 N.pl3   
   3 C3             0.9281    -0.5888     1.2289 C.2     
   4 N4             1.7232     0.4501     1.1256 N.2     
   5 C5             0.9783     1.5499     0.8806 C.2     
   6 C6             1.4865     2.9217     0.7029 C.2     
   7 O7             0.7119     3.8338     0.4853 O.2     
   8 N8             2.8097     3.1656     0.7814 N.am    
   9 C9             3.3149     4.5293     0.6047 C.3     
  10 C10            3.4995     4.8155    -0.8869 C.3     
  11 C11            4.3981     3.7423    -1.5048 C.3     
  12 C12            4.6389     4.6699     1.3108 C.2     
  13 C13            2.1364     4.8011    -1.5815 C.3     
  14 C14            4.1487     6.1893    -1.0661 C.3     
  15 O15            5.2216     3.6836     1.7089 O.2     
  16 N16            5.1753     5.8917     1.4998 N.am    
  17 C17            6.4953     6.0240     2.1215 C.3     
  18 C18           -1.5703    -0.9919     1.1291 C.3     
  19 C19           -2.4722    -0.6604    -0.0639 C.3     
  20 C20           -3.3844     0.5101     0.2892 C.3     
  21 N21           -2.7091     1.4505     1.1860 N.3     
  22 C22           -1.5219     2.0382     0.5480 C.3     
  23 C23           -3.6329     2.4967     1.6442 C.3     
  24 C24            1.3559    -1.9815     1.4867 C.ar    
  25 C25            2.6124    -2.4170     1.0657 C.ar    
  26 C26            0.5065    -2.8619     2.1568 C.ar    
  27 C27            0.9112    -4.1618     2.3955 C.ar    
  28 C28            2.1579    -4.5907     1.9706 C.ar    
  29 C29            3.0074    -3.7189     1.3094 C.ar    
  30 F30            4.2219    -4.1435     0.8972 F       
  31 F31            0.0895    -5.0154     3.0448 F       
  32 H32            3.4275     2.4381     0.9549 H       
  33 H33            2.6018     5.2383     1.0252 H       
  34 H34            3.9356     2.7636    -1.3771 H       
  35 H35            4.5296     3.9462    -2.5674 H       
  36 H36            5.3693     3.7526    -1.0099 H       
  37 H37            1.4962     5.5656    -1.1413 H       
  38 H38            2.2679     5.0050    -2.6442 H       
  39 H39            1.6739     3.8224    -1.4539 H       
  40 H40            5.1064     6.2092    -0.5460 H       
  41 H41            4.3076     6.3805    -2.1274 H       
  42 H42            3.4946     6.9570    -0.6526 H       
  43 H43            4.6875     6.6836     1.2243 H       
  44 H44            7.2361     5.5020     1.5158 H       
  45 H45            6.7604     7.0790     2.1903 H       
  46 H46            6.4715     5.5894     3.1208 H       
  47 H47           -1.2969    -2.0466     1.0970 H       
  48 H48           -2.1014    -0.7803     2.0571 H       
  49 H49           -1.8550    -0.3931    -0.9216 H       
  50 H50           -3.0792    -1.5309    -0.3123 H       
  51 H51           -3.6698     1.0300    -0.6253 H       
  52 H52           -4.2811     0.1301     0.7786 H       
  53 H53           -1.3467     3.0351     0.9526 H       
  54 H54           -1.6815     2.1037    -0.5283 H       
  55 H55           -4.4640     2.0384     2.1800 H       
  56 H56           -3.1057     3.1814     2.3086 H       
  57 H57           -4.0143     3.0468     0.7840 H       
  58 H58            3.2753    -1.7381     0.5498 H       
  59 H59           -0.4656    -2.5284     2.4888 H       
  60 H60            2.4703    -5.6072     2.1591 H       
@<TRIPOS>BOND
   1    1    2 1
   2    1    5 2
   3    1   22 1
   4    2    3 1
   5    2   18 1
   6    3    4 2
   7    3   24 1
   8    4    5 1
   9    5    6 1
  10    6    7 2
  11    6    8 am
  12    8    9 1
  13    8   32 1
  14    9   10 1
  15    9   12 1
  16    9   33 1
  17   10   11 1
  18   10   13 1
  19   10   14 1
  20   11   34 1
  21   11   35 1
  22   11   36 1
  23   12   15 2
  24   12   16 am
  25   13   37 1
  26   13   38 1
  27   13   39 1
  28   14   40 1
  29   14   41 1
  30   14   42 1
  31   16   17 1
  32   16   43 1
  33   17   44 1
  34   17   45 1
  35   17   46 1
  36   18   19 1
  37   18   47 1
  38   18   48 1
  39   19   20 1
  40   19   49 1
  41   19   50 1
  42   20   21 1
  43   20   51 1
  44   20   52 1
  45   21   22 1
  46   21   23 1
  47   22   53 1
  48   22   54 1
  49   23   55 1
  50   23   56 1
  51   23   57 1
  52   24   26 ar
  53   24   25 ar
  54   25   29 ar
  55   25   58 1
  56   26   27 ar
  57   26   59 1
  58   27   28 ar
  59   27   31 1
  60   28   29 ar
  61   28   60 1
  62   29   30 1

#	End of record

