#	Name: ASD01910325
#	Creating user name:	WinNT
#	Creation time:	15. 06. 2019 19:55

#	Modifying user name:	WinNT
#	Modification time:	15. 06. 2019 19:55

#	Program:	/corina/corina34_cracker 3.40 0067  02.08.2006

@<TRIPOS>MOLECULE
ASD01910325
  42   44    0    0    0
SMALL
NO_CHARGES


@<TRIPOS>ATOM
   1 C1            -0.0989     1.1942     0.3713 C.ar    
   2 C2            -0.0419    -0.0753    -0.1810 C.ar    
   3 C3            -1.1853    -0.6657    -0.6950 C.ar    
   4 C4            -2.3902     0.0093    -0.6600 C.ar    
   5 C5            -2.4544     1.2898    -0.1044 C.ar    
   6 C6            -1.2988     1.8774     0.4175 C.ar    
   7 C7            -3.7000     1.9951    -0.0655 C.1     
   8 C8            -4.7213     2.5733    -0.0336 C.1     
   9 C9            -5.9669     3.2786     0.0054 C.ar    
  10 C10           -6.0283     4.5608     0.5624 C.ar    
  11 C11           -7.2166     5.2329     0.5992 C.ar    
  12 C12           -8.3717     4.6401     0.0806 C.ar    
  13 C13           -8.3112     3.3589    -0.4757 C.ar    
  14 C14           -7.1223     2.6882    -0.5188 C.ar    
  15 C15           -9.6559     5.3672     0.1207 C.2     
  16 O16           -9.7225     6.5069    -0.2974 O.2     
  17 N17          -10.7544     4.7675     0.6209 N.am    
  18 C18          -12.0192     5.5049     0.7442 C.3     
  19 C19          -12.5171     5.3919     2.1885 C.3     
  20 C20          -12.6102     3.9148     2.5776 C.3     
  21 C21          -11.2226     3.2749     2.4936 C.3     
  22 C22          -10.7115     3.3622     1.0475 C.3     
  23 O23          -13.1051     3.8047     3.9137 O.3     
  24 F24            1.0201     1.7629     0.8708 F       
  25 F25           -1.1216    -1.9038    -1.2319 F       
  26 H26            0.8978    -0.6068    -0.2114 H       
  27 H27           -3.2805    -0.4516    -1.0616 H       
  28 H28           -1.3420     2.8668     0.8482 H       
  29 H29           -5.1361     5.0187     0.9634 H       
  30 H30           -7.2641     6.2224     1.0294 H       
  31 H31           -9.2040     2.9014    -0.8759 H       
  32 H32           -7.0757     1.6986    -0.9489 H       
  33 H33          -11.8567     6.5535     0.4947 H       
  34 H34          -12.7592     5.0768     0.0680 H       
  35 H35          -11.8198     5.9003     2.8545 H       
  36 H36          -13.5014     5.8527     2.2711 H       
  37 H37          -13.2886     3.4017     1.8959 H       
  38 H38          -10.5375     3.8032     3.1567 H       
  39 H39          -11.2856     2.2288     2.7934 H       
  40 H40          -11.3458     2.7583     0.3987 H       
  41 H41           -9.6851     2.9984     1.0001 H       
  42 H42          -13.1902     2.8941     4.2278 H       
@<TRIPOS>BOND
   1    1    2 ar
   2    1   24 1
   3    1    6 ar
   4    2    3 ar
   5    2   26 1
   6    3    4 ar
   7    3   25 1
   8    4    5 ar
   9    4   27 1
  10    5    6 ar
  11    5    7 1
  12    6   28 1
  13    7    8 3
  14    8    9 1
  15    9   10 ar
  16    9   14 ar
  17   10   11 ar
  18   10   29 1
  19   11   12 ar
  20   11   30 1
  21   12   13 ar
  22   12   15 1
  23   13   14 ar
  24   13   31 1
  25   14   32 1
  26   15   16 2
  27   15   17 am
  28   17   18 1
  29   17   22 1
  30   18   19 1
  31   18   33 1
  32   18   34 1
  33   19   20 1
  34   19   35 1
  35   19   36 1
  36   20   21 1
  37   20   23 1
  38   20   37 1
  39   21   22 1
  40   21   38 1
  41   21   39 1
  42   22   40 1
  43   22   41 1
  44   23   42 1

#	End of record

