#	Name: ASD04840007
#	Creating user name:	WinNT
#	Creation time:	15. 06. 2019 20:52

#	Modifying user name:	WinNT
#	Modification time:	15. 06. 2019 20:52

#	Program:	/corina/corina34_cracker 3.40 0067  02.08.2006

@<TRIPOS>MOLECULE
ASD04840007
  27   29    0    0    0
SMALL
NO_CHARGES


@<TRIPOS>ATOM
   1 C1             0.0257     1.3977    -0.5866 C.ar    
   2 C2             0.0414    -0.0107    -0.5443 C.ar    
   3 C3             1.1991    -0.6810    -0.3477 C.ar    
   4 C4             2.4282    -0.0173    -0.1781 C.ar    
   5 C5             2.4882     1.3734    -0.2088 C.ar    
   6 C6             1.2310     2.1133    -0.4226 C.ar    
   7 S7             4.0450    -0.6631     0.0893 S.3     
   8 C8             4.7313     0.9509     0.1485 C.2     
   9 C9             3.7906     1.8644    -0.0225 C.2     
  10 C10            4.0655     3.8636    -1.4310 C.2     
  11 C11            4.0971     3.3399    -0.0183 C.3     
  12 C12            1.2207     3.5112    -0.4648 C.ar    
  13 C13            0.0421     4.1692    -0.6646 C.ar    
  14 C14           -1.1484     3.4673    -0.8267 C.ar    
  15 C15           -1.1714     2.1053    -0.7838 C.ar    
  16 O16            3.8193     3.1154    -2.3473 O.2     
  17 O17            4.3108     5.1612    -1.6714 O.3     
  18 H18           -0.8801    -0.5598    -0.6696 H       
  19 H19            1.1797    -1.7605    -0.3197 H       
  20 H20            5.7778     1.1682     0.3033 H       
  21 H21            3.3520     3.8640     0.5803 H       
  22 H22            5.0867     3.5042     0.4081 H       
  23 H23            2.1390     4.0659    -0.3398 H       
  24 H24            0.0331     5.2487    -0.6969 H       
  25 H25           -2.0688     4.0101    -0.9836 H       
  26 H26           -2.1025     1.5732    -0.9116 H       
  27 H27            4.2792     5.4504    -2.5936 H       
@<TRIPOS>BOND
   1    1    2 ar
   2    1    6 ar
   3    1   15 ar
   4    2    3 ar
   5    2   18 1
   6    3    4 ar
   7    3   19 1
   8    4    5 ar
   9    4    7 1
  10    5    6 ar
  11    5    9 1
  12    6   12 ar
  13    7    8 1
  14    8    9 2
  15    8   20 1
  16    9   11 1
  17   10   16 2
  18   10   17 1
  19   10   11 1
  20   11   21 1
  21   11   22 1
  22   12   13 ar
  23   12   23 1
  24   13   14 ar
  25   13   24 1
  26   14   15 ar
  27   14   25 1
  28   15   26 1
  29   17   27 1

#	End of record

