#	Name: ASD02500183
#	Creating user name:	WinNT
#	Creation time:	15. 06. 2019 20:22

#	Modifying user name:	WinNT
#	Modification time:	15. 06. 2019 20:22

#	Program:	/corina/corina34_cracker 3.40 0067  02.08.2006

@<TRIPOS>MOLECULE
ASD02500183
  62   66    0    0    0
SMALL
NO_CHARGES


@<TRIPOS>ATOM
   1 N1            -3.0138     5.5585    -0.6453 N.ar    
   2 C2            -4.1093     6.1847    -1.0003 C.ar    
   3 C3            -5.2942     6.0559    -0.2787 C.ar    
   4 C4            -5.3337     5.2598     0.8304 C.ar    
   5 C5            -4.1555     4.5885     1.2084 C.ar    
   6 C6            -4.1194     3.7537     2.3366 C.ar    
   7 C7            -2.9599     3.1220     2.6695 C.ar    
   8 C8            -1.8077     3.2934     1.9054 C.ar    
   9 C9            -1.8071     4.0952     0.8056 C.ar    
  10 C10           -2.9846     4.7643     0.4296 C.ar    
  11 S11           -0.3354     4.2946    -0.1426 S.o2    
  12 O12           -0.1026     5.6935    -0.2328 O.2     
  13 O13            0.6132     3.3817     0.3921 O.2     
  14 N14           -0.6686     3.7760    -1.6796 N.am    
  15 C15           -0.9317     2.4316    -1.9181 C.ar    
  16 C16           -0.4980     1.8379    -3.1005 C.ar    
  17 C17           -0.7568     0.5078    -3.3393 C.ar    
  18 C18           -1.4561    -0.2476    -2.3933 C.ar    
  19 C19           -1.8902     0.3513    -1.2073 C.ar    
  20 C20           -1.6233     1.6808    -0.9717 C.ar    
  21 C21            0.2553     2.6530    -4.1198 C.3     
  22 C22           -1.7357    -1.6738    -2.6465 C.2     
  23 O23           -2.1300    -2.0313    -3.7397 O.2     
  24 N24           -1.5540    -2.5805    -1.6660 N.am    
  25 C25           -1.6891    -4.0177    -1.9419 C.3     
  26 C26           -0.3974    -4.7231    -1.5105 C.3     
  27 N27           -0.0601    -4.2923    -0.1464 N.am    
  28 C28            0.0750    -2.8552     0.1294 C.3     
  29 C29           -1.2113    -2.1501    -0.3032 C.3     
  30 C30            0.6644    -4.7735     2.1454 C.ar    
  31 C31            0.6945    -5.6757     3.2057 C.ar    
  32 C32            1.2112    -5.2641     4.4258 C.ar    
  33 C33            1.6795    -3.9629     4.5405 C.ar    
  34 C34            1.6180    -3.1204     3.4430 C.ar    
  35 N35            1.1230    -3.5372     2.2978 N.ar    
  36 C36            0.1215    -5.1991     0.8340 C.2     
  37 O37           -0.1599    -6.3656     0.6426 O.2     
  38 Cl38           1.2698    -6.3516     5.7778 Cl      
  39 H39           -4.0929     6.8177    -1.8752 H       
  40 H40           -6.1805     6.5853    -0.5958 H       
  41 H41           -6.2435     5.1487     1.4017 H       
  42 H42           -5.0061     3.6136     2.9371 H       
  43 H43           -2.9331     2.4800     3.5376 H       
  44 H44           -0.9002     2.7820     2.1906 H       
  45 H45           -0.6802     4.4101    -2.4136 H       
  46 H46           -0.4204     0.0479    -4.2568 H       
  47 H47           -2.4307    -0.2296    -0.4746 H       
  48 H48           -1.9543     2.1430    -0.0534 H       
  49 H49            1.3240     2.5960    -3.9129 H       
  50 H50            0.0570     2.2607    -5.1173 H       
  51 H51           -0.0701     3.6919    -4.0667 H       
  52 H52           -2.5314    -4.4206    -1.3793 H       
  53 H53           -1.8513    -4.1718    -3.0087 H       
  54 H54           -0.5471    -5.8026    -1.5267 H       
  55 H55            0.4112    -4.4532    -2.1898 H       
  56 H56            0.2372    -2.7011     1.1962 H       
  57 H57            0.9172    -2.4523    -0.4331 H       
  58 H58           -1.0580    -1.0710    -0.2881 H       
  59 H59           -2.0187    -2.4169     0.3786 H       
  60 H60            0.3208    -6.6812     3.0802 H       
  61 H61            2.0876    -3.6107     5.4764 H       
  62 H62            1.9813    -2.1069     3.5288 H       
@<TRIPOS>BOND
   1    1    2 ar
   2    1   10 ar
   3    2    3 ar
   4    2   39 1
   5    3    4 ar
   6    3   40 1
   7    4    5 ar
   8    4   41 1
   9    5    6 ar
  10    5   10 ar
  11    6    7 ar
  12    6   42 1
  13    7    8 ar
  14    7   43 1
  15    8    9 ar
  16    8   44 1
  17    9   10 ar
  18    9   11 1
  19   11   12 2
  20   11   13 2
  21   11   14 am
  22   14   15 1
  23   14   45 1
  24   15   16 ar
  25   15   20 ar
  26   16   17 ar
  27   16   21 1
  28   17   18 ar
  29   17   46 1
  30   18   19 ar
  31   18   22 1
  32   19   20 ar
  33   19   47 1
  34   20   48 1
  35   21   49 1
  36   21   50 1
  37   21   51 1
  38   22   23 2
  39   22   24 am
  40   24   25 1
  41   24   29 1
  42   25   26 1
  43   25   52 1
  44   25   53 1
  45   26   27 1
  46   26   54 1
  47   26   55 1
  48   27   28 1
  49   27   36 am
  50   28   29 1
  51   28   56 1
  52   28   57 1
  53   29   58 1
  54   29   59 1
  55   30   31 ar
  56   30   35 ar
  57   30   36 1
  58   31   32 ar
  59   31   60 1
  60   32   33 ar
  61   32   38 1
  62   33   34 ar
  63   33   61 1
  64   34   35 ar
  65   34   62 1
  66   36   37 2

#	End of record

