#	Name: ASD08150447
#	Creating user name:	WinNT
#	Creation time:	15. 06. 2019 21:16

#	Modifying user name:	WinNT
#	Modification time:	15. 06. 2019 21:16

#	Program:	/corina/corina34_cracker 3.40 0067  02.08.2006

@<TRIPOS>MOLECULE
ASD08150447
  34   36    0    0    0
SMALL
NO_CHARGES


@<TRIPOS>ATOM
   1 C1            -0.0178     1.4648     0.0101 C.3     
   2 N2             0.0021    -0.0041     0.0020 N.3     
   3 C3            -1.3620    -0.5491     0.0121 C.3     
   4 C4             5.8349     3.6231    -0.0224 C.ar    
   5 N5             4.9321     3.2826     0.8698 N.ar    
   6 C6             3.7245     2.8409     0.4960 C.ar    
   7 C7             3.4277     2.7436    -0.8661 C.ar    
   8 C8             4.4375     3.1238    -1.7868 C.ar    
   9 N9             5.6027     3.5490    -1.3216 N.ar    
  10 C10            2.0828     2.2495    -1.0952 C.2     
  11 C11            1.3960     1.9864    -0.0006 C.2     
  12 S12            2.3369     2.3207     1.4408 S.3     
  13 O13            3.9438     4.0842    -5.7472 O.3     
  14 C14            5.1161     3.3405    -5.4039 C.3     
  15 C15            5.3901     3.4931    -3.9054 C.3     
  16 N16            4.2093     3.0512    -3.1491 N.3     
  17 C17            3.0249     3.8357    -3.5274 C.3     
  18 C18            2.7747     3.6796    -5.0298 C.3     
  19 Cl19           7.3804     4.1957     0.5231 Cl      
  20 H20           -0.5450     1.8259    -0.8730 H       
  21 H21           -0.5280     1.8163     0.9069 H       
  22 H22            0.5256    -0.3543    -0.7863 H       
  23 H23           -1.8815    -0.2116     0.9089 H       
  24 H24           -1.8985    -0.2020    -0.8709 H       
  25 H25           -1.3182    -1.6382     0.0058 H       
  26 H26            1.6756     2.1085    -2.0855 H       
  27 H27            4.9615     2.2878    -5.6403 H       
  28 H28            5.9668     3.7202    -5.9699 H       
  29 H29            6.2493     2.8822    -3.6284 H       
  30 H30            5.5977     4.5387    -3.6779 H       
  31 H31            2.1576     3.4748    -2.9746 H       
  32 H32            3.1947     4.8867    -3.2939 H       
  33 H33            1.9319     4.3046    -5.3252 H       
  34 H34            2.5520     2.6367    -5.2553 H       
@<TRIPOS>BOND
   1    1    2 1
   2    1   11 1
   3    1   20 1
   4    1   21 1
   5    2    3 1
   6    2   22 1
   7    3   23 1
   8    3   24 1
   9    3   25 1
  10    4    5 ar
  11    4    9 ar
  12    4   19 1
  13    5    6 ar
  14    6    7 ar
  15    6   12 1
  16    7    8 ar
  17    7   10 1
  18    8    9 ar
  19    8   16 1
  20   10   11 2
  21   10   26 1
  22   11   12 1
  23   13   14 1
  24   13   18 1
  25   14   15 1
  26   14   27 1
  27   14   28 1
  28   15   16 1
  29   15   29 1
  30   15   30 1
  31   16   17 1
  32   17   18 1
  33   17   31 1
  34   17   32 1
  35   18   33 1
  36   18   34 1

#	End of record

