#	Name: ASD00100128
#	Creating user name:	WinNT
#	Creation time:	15. 06. 2019 18:30

#	Modifying user name:	WinNT
#	Modification time:	15. 06. 2019 18:30

#	Program:	/corina/corina34_cracker 3.40 0067  02.08.2006

@<TRIPOS>MOLECULE
ASD00100128
  35   37    0    0    0
SMALL
NO_CHARGES


@<TRIPOS>ATOM
   1 N1            -0.9243    -1.3482    -2.3718 N.pl3   
   2 C2            -0.4591    -1.3517    -1.0678 C.2     
   3 N3             0.6850    -1.8506    -0.6664 N.2     
   4 C4             0.8027    -1.6741     0.6729 C.2     
   5 C5            -0.3135    -1.0420     1.1101 C.2     
   6 N6            -1.1111    -0.8328     0.0075 N.pl3   
   7 C7             1.9575    -1.9790     2.8517 C.2     
   8 C8             1.9517    -2.0985     1.5123 C.2     
   9 C9             3.1118    -2.6537     0.9768 C.2     
  10 C10            4.0425    -2.9784     1.8714 C.2     
  11 S11            3.4799    -2.5852     3.4900 S.3     
  12 C12           -2.4202    -0.1754    -0.0050 C.3     
  13 C13           -2.8260     0.1629     1.4064 C.ar    
  14 C14           -2.4774     1.3844     1.9529 C.ar    
  15 C15           -2.8499     1.6948     3.2487 C.ar    
  16 C16           -3.5711     0.7850     3.9997 C.ar    
  17 C17           -3.9211    -0.4364     3.4580 C.ar    
  18 C18           -3.5543    -0.7483     2.1566 C.ar    
  19 O19           -3.9029    -1.9472     1.6200 O.3     
  20 C20           -4.6528    -2.8361     2.4503 C.3     
  21 Cl21          -1.5714     2.5286     1.0128 Cl      
  22 H22           -0.3576    -1.6709    -3.0898 H       
  23 H23           -1.8185    -1.0268    -2.5668 H       
  24 H24           -0.5334    -0.7543     2.1276 H       
  25 H25            1.1528    -1.5692     3.4440 H       
  26 H26            3.2458    -2.8093    -0.0835 H       
  27 H27            5.0007    -3.4185     1.6377 H       
  28 H28           -2.3620     0.7391    -0.5954 H       
  29 H29           -3.1590    -0.8453    -0.4448 H       
  30 H30           -2.5767     2.6491     3.6744 H       
  31 H31           -3.8608     1.0296     5.0110 H       
  32 H32           -4.4841    -1.1466     4.0455 H       
  33 H33           -4.0756    -3.0721     3.3443 H       
  34 H34           -5.5903    -2.3604     2.7382 H       
  35 H35           -4.8646    -3.7539     1.9018 H       
@<TRIPOS>BOND
   1    1    2 1
   2    1   22 1
   3    1   23 1
   4    2    3 2
   5    2    6 1
   6    3    4 1
   7    4    5 2
   8    4    8 1
   9    5    6 1
  10    5   24 1
  11    6   12 1
  12    7    8 2
  13    7   11 1
  14    7   25 1
  15    8    9 1
  16    9   10 2
  17    9   26 1
  18   10   11 1
  19   10   27 1
  20   12   13 1
  21   12   28 1
  22   12   29 1
  23   13   14 ar
  24   13   18 ar
  25   14   15 ar
  26   14   21 1
  27   15   16 ar
  28   15   30 1
  29   16   17 ar
  30   16   31 1
  31   17   18 ar
  32   17   32 1
  33   18   19 1
  34   19   20 1
  35   20   33 1
  36   20   34 1
  37   20   35 1

#	End of record

