#	Name: ASD05310001
#	Creating user name:	WinNT
#	Creation time:	15. 06. 2019 20:58

#	Modifying user name:	WinNT
#	Modification time:	15. 06. 2019 20:58

#	Program:	/corina/corina34_cracker 3.40 0067  02.08.2006

@<TRIPOS>MOLECULE
ASD05310001
  40   43    0    0    0
SMALL
NO_CHARGES


@<TRIPOS>ATOM
   1 C1            -0.0176     1.4441     0.0100 C.2     
   2 C2             0.0021    -0.0041     0.0020 C.2     
   3 C3             1.2762     1.8279    -0.0003 C.2     
   4 O4             2.0738     0.7426    -0.0132 O.3     
   5 C5             1.3549    -0.3756    -0.0114 C.2     
   6 C6             1.7577    -1.7920    -0.0204 C.ar    
   7 C7             0.7704    -2.7776    -0.2384 C.ar    
   8 C8            -0.6346    -2.3809    -0.4825 C.2     
   9 C9            -1.0664    -1.0135     0.0032 C.2     
  10 C10            3.0764    -2.1751     0.1841 C.ar    
  11 C11            3.4058    -3.5171     0.1762 C.ar    
  12 C12            2.4372    -4.4937    -0.0324 C.ar    
  13 C13            1.1229    -4.1321    -0.2343 C.ar    
  14 C14            2.8891    -5.9314    -0.0359 C.3     
  15 C15            1.7013    -6.8705     0.1611 C.3     
  16 C16            0.6139    -6.4943    -0.8522 C.3     
  17 C17            0.0271    -5.1434    -0.4486 C.3     
  18 C18            3.5629    -6.2447    -1.3733 C.3     
  19 C19            3.8950    -6.1464     1.0968 C.3     
  20 O20           -1.4096    -3.1222    -1.0502 O.2     
  21 O21           -2.2004    -0.7709     0.3633 O.2     
  22 S22            1.8378     3.4980     0.0017 S.o2    
  23 O23            3.1083     3.5142    -0.7064 O.co2   
  24 O24            0.8217     4.2830    -0.6820 O.co2   
  25 O25            1.9843     3.8895     1.3950 O.co2   
  26 H26           -0.8874     2.0842     0.0178 H       
  27 H27            3.8399    -1.4291     0.3480 H       
  28 H28            4.4324    -3.8128     0.3342 H       
  29 H29            2.0165    -7.9007    -0.0042 H       
  30 H30            1.3125    -6.7630     1.1737 H       
  31 H31            1.0496    -6.4224    -1.8487 H       
  32 H32           -0.1702    -7.2515    -0.8474 H       
  33 H33           -0.5403    -5.2594     0.4748 H       
  34 H34           -0.6383    -4.7907    -1.2366 H       
  35 H35            4.4243    -5.5906    -1.5083 H       
  36 H36            3.8914    -7.2840    -1.3800 H       
  37 H37            2.8531    -6.0828    -2.1845 H       
  38 H38            3.4225    -5.9142     2.0512 H       
  39 H39            4.2245    -7.1854     1.0977 H       
  40 H40            4.7545    -5.4928     0.9483 H       
@<TRIPOS>BOND
   1    1    2 1
   2    1    3 2
   3    1   26 1
   4    2    5 2
   5    2    9 1
   6    3    4 1
   7    3   22 1
   8    4    5 1
   9    5    6 1
  10    6    7 ar
  11    6   10 ar
  12    7    8 1
  13    7   13 ar
  14    8    9 1
  15    8   20 2
  16    9   21 2
  17   10   11 ar
  18   10   27 1
  19   11   12 ar
  20   11   28 1
  21   12   13 ar
  22   12   14 1
  23   13   17 1
  24   14   15 1
  25   14   18 1
  26   14   19 1
  27   15   16 1
  28   15   29 1
  29   15   30 1
  30   16   17 1
  31   16   31 1
  32   16   32 1
  33   17   33 1
  34   17   34 1
  35   18   35 1
  36   18   36 1
  37   18   37 1
  38   19   38 1
  39   19   39 1
  40   19   40 1
  41   22   23 ar
  42   22   24 ar
  43   22   25 ar

#	End of record

