#	Name: ASD00180008
#	Creating user name:	WinNT
#	Creation time:	15. 06. 2019 18:33

#	Modifying user name:	WinNT
#	Modification time:	15. 06. 2019 18:33

#	Program:	/corina/corina34_cracker 3.40 0067  02.08.2006

@<TRIPOS>MOLECULE
ASD00180008
  40   43    0    0    0
SMALL
NO_CHARGES


@<TRIPOS>ATOM
   1 O1            -0.0164     1.3548     0.0095 O.3     
   2 C2             0.0021    -0.0041     0.0020 C.ar    
   3 C3             0.0230    -0.7053     1.1989 C.ar    
   4 C4             0.0417    -2.0865     1.1886 C.ar    
   5 C5             0.0397    -2.7702    -0.0132 C.ar    
   6 C6             0.0193    -2.0737    -1.2074 C.ar    
   7 C7            -0.0057    -0.6924    -1.2024 C.ar    
   8 C8             0.0602    -4.2770    -0.0215 C.3     
   9 C9            -1.3752    -4.8067    -0.0106 C.3     
  10 N10           -1.3553    -6.2715    -0.0187 N.pl3   
  11 C11           -2.5404    -6.9775    -0.0112 C.2     
  12 N12           -3.6993    -6.3131     0.0034 N.2     
  13 C13           -4.8487    -6.9637     0.0109 C.2     
  14 N14           -6.0331    -6.2747     0.0254 N.pl3   
  15 N15           -4.8459    -8.3281     0.0035 N.pl3   
  16 C16           -3.6517    -9.0003    -0.0115 C.2     
  17 N17           -2.5085    -8.2999    -0.0240 N.2     
  18 N18           -3.9235   -10.2949    -0.0151 N.2     
  19 C19           -5.2502   -10.4763    -0.0030 C.2     
  20 N20           -5.8511    -9.3016     0.0086 N.2     
  21 C21           -5.9339   -11.7864    -0.0023 C.2     
  22 C22           -5.3272   -13.0030    -0.0132 C.2     
  23 C23           -6.3534   -13.9684    -0.0078 C.2     
  24 C24           -7.5237   -13.3003     0.0061 C.2     
  25 O25           -7.2665   -11.9826     0.0152 O.3     
  26 H26            0.8616     1.7601     0.0033 H       
  27 H27            0.0249    -0.1717     2.1379 H       
  28 H28            0.0583    -2.6329     2.1201 H       
  29 H29            0.0185    -2.6100    -2.1449 H       
  30 H30           -0.0216    -0.1488    -2.1355 H       
  31 H31            0.5704    -4.6285    -0.9183 H       
  32 H32            0.5873    -4.6381     0.8616 H       
  33 H33           -1.8854    -4.4552     0.8861 H       
  34 H34           -1.9024    -4.4456    -0.8937 H       
  35 H35           -0.5088    -6.7450    -0.0293 H       
  36 H36           -6.0299    -5.3047     0.0303 H       
  37 H37           -6.8747    -6.7569     0.0308 H       
  38 H38           -4.2641   -13.1928    -0.0245 H       
  39 H39           -6.2262   -15.0408    -0.0139 H       
  40 H40           -8.5055   -13.7503     0.0133 H       
@<TRIPOS>BOND
   1    1    2 1
   2    1   26 1
   3    2    3 ar
   4    2    7 ar
   5    3    4 ar
   6    3   27 1
   7    4    5 ar
   8    4   28 1
   9    5    6 ar
  10    5    8 1
  11    6    7 ar
  12    6   29 1
  13    7   30 1
  14    8    9 1
  15    8   31 1
  16    8   32 1
  17    9   10 1
  18    9   33 1
  19    9   34 1
  20   10   11 1
  21   10   35 1
  22   11   12 1
  23   11   17 2
  24   12   13 2
  25   13   14 1
  26   13   15 1
  27   14   36 1
  28   14   37 1
  29   15   16 1
  30   15   20 1
  31   16   17 1
  32   16   18 2
  33   18   19 1
  34   19   20 2
  35   19   21 1
  36   21   22 2
  37   21   25 1
  38   22   23 1
  39   22   38 1
  40   23   24 2
  41   23   39 1
  42   24   25 1
  43   24   40 1

#	End of record

