#	Name: ASD00842940
#	Creating user name:	WinNT
#	Creation time:	15. 06. 2019 18:45

#	Modifying user name:	WinNT
#	Modification time:	15. 06. 2019 18:45

#	Program:	/corina/corina34_cracker 3.40 0067  02.08.2006

@<TRIPOS>MOLECULE
ASD00842940
  97  102    0    0    0
SMALL
NO_CHARGES


@<TRIPOS>ATOM
   1 N1            -0.0141     1.3152     0.0261 N.ar    
   2 C2             0.0028    -0.0071     0.0116 C.ar    
   3 C3             1.2071    -0.6993    -0.0063 C.ar    
   4 C4             2.3933     0.0133    -0.0086 C.ar    
   5 C5             2.3326     1.4002     0.0071 C.ar    
   6 C6             1.1003     2.0221     0.0244 C.ar    
   7 C7             1.2215    -2.2062    -0.0223 C.3     
   8 C8             0.4763    -2.7311    -1.2310 C.2     
   9 N9             2.5988    -2.7054    -0.0115 N.am    
  10 C10            3.4472    -2.3639    -1.0016 C.2     
  11 N11            4.7405    -2.7378    -0.9396 N.am    
  12 O12            3.0456    -1.7187    -1.9507 O.2     
  13 C13            5.2673    -3.4167     0.2522 C.3     
  14 C14            6.4979    -2.6530     0.7512 C.3     
  15 C15            7.5066    -2.5163    -0.3916 C.3     
  16 C16            6.8768    -1.7215    -1.5378 C.3     
  17 C17            5.6491    -2.4797    -2.0650 C.3     
  18 C18            8.7519    -1.7842     0.1124 C.3     
  19 C19            9.3841    -2.5791     1.2582 C.3     
  20 C20           10.6624    -1.8739     1.7174 C.3     
  21 N21           11.5996    -1.7744     0.5913 N.3     
  22 C22           11.0326    -0.9753    -0.5024 C.3     
  23 C23            9.7654    -1.6537    -1.0279 C.3     
  24 C24           12.8912    -1.2276     1.0281 C.3     
  25 O25            0.7580    -2.5309    -2.3935 O.2     
  26 N26           -0.5550    -3.4609    -0.7746 N.am    
  27 C27            0.4461    -2.7561     1.1532 C.ar    
  28 C28           -0.6036    -3.4974     0.6161 C.ar    
  29 C29            0.6094    -2.6424     2.5106 C.ar    
  30 C30           -0.2887    -3.2781     3.3753 C.ar    
  31 C31           -1.3464    -4.0250     2.8426 C.ar    
  32 C32           -1.4988    -4.1327     1.4768 C.ar    
  33 F33           -2.2187    -4.6425     3.6689 F       
  34 C34           -1.0180    -5.8465    -2.0665 C.ar    
  35 C35            0.1611    -6.0082    -2.7791 C.ar    
  36 C36           -1.6969    -6.9540    -1.5960 C.ar    
  37 C37           -1.2018    -8.2226    -1.8344 C.ar    
  38 C38           -0.0265    -8.3865    -2.5445 C.ar    
  39 C39            0.6557    -7.2825    -3.0174 C.ar    
  40 H40            0.3582    -9.3785    -2.7295 H       
  41 O41            0.8305    -4.9205    -3.2433 O.3     
  42 C42            2.0375    -5.1624    -3.9689 C.3     
  43 C43            2.6449    -3.8285    -4.4078 C.3     
  44 C44           13.8781    -1.2552    -0.1407 C.3     
  45 C45           12.7006     0.2150     1.5008 C.3     
  46 S46           -1.6455    -4.2297    -1.7555 S.o2    
  47 O47           -2.8277    -4.3994    -0.9855 O.2     
  48 O48           -1.6200    -3.5432    -2.9994 O.2     
  49 O49           -1.1671    -0.6941     0.0145 O.3     
  50 C50           -2.3712     0.0752     0.0336 C.3     
  51 C51           -3.5777    -0.8657     0.0341 C.3     
  52 F52           -3.5500    -1.6600    -1.1173 F       
  53 F53           -3.5297    -1.6849     1.1671 F       
  54 C54           -0.1269    -3.1660     4.7937 C.1     
  55 N55            0.0014    -3.0771     5.9190 N.1     
  56 H56            3.3446    -0.4978    -0.0219 H       
  57 H57            3.2397     1.9862     0.0061 H       
  58 H58            1.0475     3.1007     0.0362 H       
  59 H59            2.9002    -3.2816     0.7082 H       
  60 H60            4.5052    -3.4309     1.0314 H       
  61 H61            5.5499    -4.4378    -0.0039 H       
  62 H62            6.1977    -1.6621     1.0919 H       
  63 H63            6.9550    -3.1989     1.5765 H       
  64 H64            7.7876    -3.5072    -0.7483 H       
  65 H65            6.5730    -0.7394    -1.1756 H       
  66 H66            7.6035    -1.6045    -2.3417 H       
  67 H67            5.9656    -3.4231    -2.5099 H       
  68 H68            5.1388    -1.8734    -2.8134 H       
  69 H69            8.4724    -0.7924     0.4680 H       
  70 H70            8.6825    -2.6389     2.0903 H       
  71 H71            9.6269    -3.5842     0.9133 H       
  72 H72           10.4170    -0.8739     2.0751 H       
  73 H73           11.1227    -2.4450     2.5236 H       
  74 H74           10.7854     0.0205    -0.1343 H       
  75 H75           11.7617    -0.8937    -1.3085 H       
  76 H76           10.0141    -2.6442    -1.4088 H       
  77 H77            9.3362    -1.0522    -1.8292 H       
  78 H78           13.2821    -1.8300     1.8480 H       
  79 H79            1.4290    -2.0640     2.9107 H       
  80 H80           -2.3164    -4.7102     1.0712 H       
  81 H81           -2.6149    -6.8286    -1.0411 H       
  82 H82           -1.7336    -9.0870    -1.4651 H       
  83 H83            1.5731    -7.4111    -3.5726 H       
  84 H84            2.7453    -5.6915    -3.3307 H       
  85 H85            1.8178    -5.7683    -4.8480 H       
  86 H86            2.8647    -3.2226    -3.5287 H       
  87 H87            3.5656    -4.0130    -4.9612 H       
  88 H88            1.9372    -3.2994    -5.0460 H       
  89 H89           13.4871    -0.6528    -0.9607 H       
  90 H90           14.8365    -0.8495     0.1833 H       
  91 H91           14.0138    -2.2830    -0.4775 H       
  92 H92           12.3097     0.8174     0.6808 H       
  93 H93           11.9975     0.2346     2.3334 H       
  94 H94           13.6590     0.6207     1.8248 H       
  95 H95           -2.3927     0.6941     0.9306 H       
  96 H96           -2.4086     0.7135    -0.8492 H       
  97 H97           -4.4961    -0.2789     0.0486 H       
@<TRIPOS>BOND
   1    1    2 ar
   2    1    6 ar
   3    2    3 ar
   4    2   49 1
   5    3    4 ar
   6    3    7 1
   7    4    5 ar
   8    4   56 1
   9    5    6 ar
  10    5   57 1
  11    6   58 1
  12    7    8 1
  13    7    9 1
  14    7   27 1
  15    8   25 2
  16    8   26 am
  17    9   10 am
  18    9   59 1
  19   10   11 am
  20   10   12 2
  21   11   13 1
  22   11   17 1
  23   13   14 1
  24   13   60 1
  25   13   61 1
  26   14   15 1
  27   14   62 1
  28   14   63 1
  29   15   16 1
  30   15   18 1
  31   15   64 1
  32   16   17 1
  33   16   65 1
  34   16   66 1
  35   17   67 1
  36   17   68 1
  37   18   19 1
  38   18   23 1
  39   18   69 1
  40   19   20 1
  41   19   70 1
  42   19   71 1
  43   20   21 1
  44   20   72 1
  45   20   73 1
  46   21   22 1
  47   21   24 1
  48   22   23 1
  49   22   74 1
  50   22   75 1
  51   23   76 1
  52   23   77 1
  53   24   44 1
  54   24   45 1
  55   24   78 1
  56   26   46 am
  57   26   28 1
  58   27   28 ar
  59   27   29 ar
  60   28   32 ar
  61   29   30 ar
  62   29   79 1
  63   30   31 ar
  64   30   54 1
  65   31   32 ar
  66   31   33 1
  67   32   80 1
  68   34   35 ar
  69   34   36 ar
  70   34   46 1
  71   35   41 1
  72   35   39 ar
  73   36   37 ar
  74   36   81 1
  75   37   38 ar
  76   37   82 1
  77   38   39 ar
  78   38   40 1
  79   39   83 1
  80   41   42 1
  81   42   43 1
  82   42   84 1
  83   42   85 1
  84   43   86 1
  85   43   87 1
  86   43   88 1
  87   44   89 1
  88   44   90 1
  89   44   91 1
  90   45   92 1
  91   45   93 1
  92   45   94 1
  93   46   47 2
  94   46   48 2
  95   49   50 1
  96   50   51 1
  97   50   95 1
  98   50   96 1
  99   51   52 1
 100   51   53 1
 101   51   97 1
 102   54   55 3

#	End of record

