#	Name: ASD03090811
#	Creating user name:	WinNT
#	Creation time:	15. 06. 2019 20:29

#	Modifying user name:	WinNT
#	Modification time:	15. 06. 2019 20:29

#	Program:	/corina/corina34_cracker 3.40 0067  02.08.2006

@<TRIPOS>MOLECULE
ASD03090811
  64   68    0    0    0
SMALL
NO_CHARGES


@<TRIPOS>ATOM
   1 C1            -0.3058     1.4718     0.0324 C.3     
   2 N2            -0.2527     0.0079     0.0196 N.am    
   3 C3            -0.0833    -0.6772     1.1927 C.2     
   4 N4            -0.0273    -1.9826     1.2552 N.2     
   5 C5            -0.1343    -2.7500     0.1514 C.ar    
   6 C6            -0.3117    -2.1279    -1.1055 C.ar    
   7 C7            -0.3769    -0.6596    -1.1512 C.2     
   8 C8             0.0425     0.0937     2.4464 C.ar    
   9 O9            -0.5282    -0.0665    -2.2034 O.2     
  10 C10           -0.0732    -4.1452     0.2244 C.ar    
  11 C11           -0.1847    -4.8921    -0.9128 C.ar    
  12 C12           -0.3594    -4.2829    -2.1556 C.ar    
  13 C13           -0.4238    -2.9035    -2.2572 C.ar    
  14 N14           -0.4704    -5.0699    -3.3053 N.3     
  15 C15            0.1802    -4.4213    -4.4524 C.3     
  16 C16            0.8818    -5.4560    -5.3195 C.3     
  17 C17           -0.0728    -6.3023    -6.1374 C.3     
  18 N18           -1.4633    -5.8513    -5.9837 N.3     
  19 C19           -2.0272    -6.3777    -4.7314 C.3     
  20 C20           -1.8762    -5.3652    -3.6068 C.3     
  21 C21           -1.6233    -4.4310    -6.2109 C.3     
  22 C22           -0.8467    -3.5961    -5.2060 C.3     
  23 C23           -0.9889     0.9449     2.8538 C.ar    
  24 C24            1.0635     2.0268    -0.2644 C.2     
  25 N25            1.2560     3.3601    -0.3050 N.am    
  26 O26            1.9923     1.2736    -0.4667 O.2     
  27 C27            1.1896    -0.0288     3.2329 C.ar    
  28 C28            1.3019     0.6929     4.4028 C.ar    
  29 C29            0.2813     1.5386     4.8005 C.ar    
  30 C30           -0.8628     1.6633     4.0306 C.ar    
  31 F31           -1.8549     2.4910     4.4254 F       
  32 C32            2.5871     3.8996    -0.5935 C.3     
  33 C33            2.7909     3.9718    -2.1082 C.3     
  34 C34            2.7096     5.3024     0.0050 C.3     
  35 F35           -2.1046     1.0663     2.1017 F       
  36 H36           -1.0095     1.8165    -0.7252 H       
  37 H37           -0.6319     1.8150     1.0142 H       
  38 H38            0.0624    -4.6312     1.1793 H       
  39 H39           -0.1366    -5.9692    -0.8496 H       
  40 H40           -0.5587    -2.4334    -3.2201 H       
  41 H41            0.9343    -3.7344    -4.0681 H       
  42 H42            1.5610    -4.9404    -5.9984 H       
  43 H43            1.4670    -6.1126    -4.6757 H       
  44 H44            0.2076    -6.2395    -7.1889 H       
  45 H45            0.0029    -7.3397    -5.8116 H       
  46 H46           -3.0849    -6.5966    -4.8779 H       
  47 H47           -1.5055    -7.2956    -4.4606 H       
  48 H48           -2.3543    -5.7596    -2.7102 H       
  49 H49           -2.3773    -4.4409    -3.8943 H       
  50 H50           -1.2728    -4.1919    -7.2150 H       
  51 H51           -2.6811    -4.1783    -6.1380 H       
  52 H52           -1.5455    -3.1614    -4.4913 H       
  53 H53           -0.3358    -2.7909    -5.7340 H       
  54 H54            0.5131     3.9625    -0.1432 H       
  55 H55            1.9879    -0.6881     2.9257 H       
  56 H56            2.1893     0.5974     5.0109 H       
  57 H57            0.3758     2.1007     5.7178 H       
  58 H58            3.3451     3.2503    -0.1555 H       
  59 H59            3.7813     4.3732    -2.3228 H       
  60 H60            2.7036     2.9724    -2.5345 H       
  61 H61            2.0329     4.6211    -2.5462 H       
  62 H62            2.5645     5.2510     1.0840 H       
  63 H63            3.7000     5.7038    -0.2097 H       
  64 H64            1.9516     5.9517    -0.4331 H       
@<TRIPOS>BOND
   1    1    2 1
   2    1   24 1
   3    1   36 1
   4    1   37 1
   5    2    3 1
   6    2    7 am
   7    3    4 2
   8    3    8 1
   9    4    5 1
  10    5    6 ar
  11    5   10 ar
  12    6    7 1
  13    6   13 ar
  14    7    9 2
  15    8   23 ar
  16    8   27 ar
  17   10   11 ar
  18   10   38 1
  19   11   12 ar
  20   11   39 1
  21   12   13 ar
  22   12   14 1
  23   13   40 1
  24   14   15 1
  25   14   20 1
  26   15   16 1
  27   15   22 1
  28   15   41 1
  29   16   17 1
  30   16   42 1
  31   16   43 1
  32   17   18 1
  33   17   44 1
  34   17   45 1
  35   18   19 1
  36   18   21 1
  37   19   20 1
  38   19   46 1
  39   19   47 1
  40   20   48 1
  41   20   49 1
  42   21   22 1
  43   21   50 1
  44   21   51 1
  45   22   52 1
  46   22   53 1
  47   23   35 1
  48   23   30 ar
  49   24   25 am
  50   24   26 2
  51   25   32 1
  52   25   54 1
  53   27   28 ar
  54   27   55 1
  55   28   29 ar
  56   28   56 1
  57   29   30 ar
  58   29   57 1
  59   30   31 1
  60   32   33 1
  61   32   34 1
  62   32   58 1
  63   33   59 1
  64   33   60 1
  65   33   61 1
  66   34   62 1
  67   34   63 1
  68   34   64 1

#	End of record

