#	Name: ASD04012013
#	Creating user name:	WinNT
#	Creation time:	15. 06. 2019 20:48

#	Modifying user name:	WinNT
#	Modification time:	15. 06. 2019 20:48

#	Program:	/corina/corina34_cracker 3.40 0067  02.08.2006

@<TRIPOS>MOLECULE
ASD04012013
  30   32    0    0    0
SMALL
NO_CHARGES


@<TRIPOS>ATOM
   1 N1            -0.0169     1.3949     0.0097 N.pl3   
   2 C2             1.2761     1.8376    -0.0003 C.2     
   3 N3             1.5530     3.1425     0.0041 N.2     
   4 C4             0.5843     4.0427     0.0182 C.2     
   5 C5            -0.7555     3.6323     0.0288 C.2     
   6 C6            -1.0447     2.2993     0.0193 C.2     
   7 N7             0.0021    -0.0041     0.0020 N.2     
   8 C8             1.2387    -0.4242    -0.0121 C.2     
   9 C9             2.0957     0.6930    -0.0143 C.2     
  10 O10           -2.3294     1.8766     0.0288 O.3     
  11 C11           -1.8647     4.6524     0.0448 C.3     
  12 C12           -2.1371     5.0760     1.4651 C.ar    
  13 O13            0.8875     5.3628     0.0229 O.3     
  14 C14           -1.4557     6.1487     2.0093 C.ar    
  15 C15           -1.7056     6.5372     3.3121 C.ar    
  16 C16           -2.6371     5.8534     4.0708 C.ar    
  17 C17           -3.3191     4.7813     3.5264 C.ar    
  18 C18           -3.0724     4.3954     2.2221 C.ar    
  19 C19            3.5274     0.6694    -0.0277 C.1     
  20 N20            4.6632     0.6507    -0.0383 N.1     
  21 H21            1.5521    -1.4577    -0.0209 H       
  22 H22           -2.4270     0.9146     0.0208 H       
  23 H23           -1.5679     5.5211    -0.5429 H       
  24 H24           -2.7667     4.2151    -0.3833 H       
  25 H25            1.8365     5.5483     0.0151 H       
  26 H26           -0.7280     6.6829     1.4165 H       
  27 H27           -1.1728     7.3748     3.7374 H       
  28 H28           -2.8318     6.1565     5.0889 H       
  29 H29           -4.0466     4.2468     4.1192 H       
  30 H30           -3.6052     3.5578     1.7967 H       
@<TRIPOS>BOND
   1    1    7 1
   2    1    2 1
   3    1    6 1
   4    2    3 1
   5    2    9 2
   6    3    4 2
   7    4    5 1
   8    4   13 1
   9    5    6 2
  10    5   11 1
  11    6   10 1
  12    7    8 2
  13    8    9 1
  14    8   21 1
  15    9   19 1
  16   10   22 1
  17   11   12 1
  18   11   23 1
  19   11   24 1
  20   12   14 ar
  21   12   18 ar
  22   13   25 1
  23   14   15 ar
  24   14   26 1
  25   15   16 ar
  26   15   27 1
  27   16   17 ar
  28   16   28 1
  29   17   18 ar
  30   17   29 1
  31   18   30 1
  32   19   20 3

#	End of record

