#	Name: ASD05143279
#	Creating user name:	WinNT
#	Creation time:	15. 06. 2019 20:57

#	Modifying user name:	WinNT
#	Modification time:	15. 06. 2019 20:57

#	Program:	/corina/corina34_cracker 3.40 0067  02.08.2006

@<TRIPOS>MOLECULE
ASD05143279
  48   50    0    0    0
SMALL
NO_CHARGES


@<TRIPOS>ATOM
   1 C1            -0.2581     1.4573     0.1056 C.2     
   2 N2            -0.0218     0.2057    -0.2336 N.2     
   3 S3            -1.5441    -0.5450    -0.3126 S.3     
   4 C4            -2.4244     0.8716     0.1171 C.2     
   5 N5            -1.5162     1.8054     0.2944 N.2     
   6 N6            -3.7950     0.9986     0.2516 N.pl3   
   7 C7            -4.3421     2.1887     0.7395 C.ar    
   8 C8            -5.6398     2.5491     0.3995 C.ar    
   9 C9            -6.1775     3.7254     0.8837 C.ar    
  10 C10           -5.4253     4.5444     1.7058 C.ar    
  11 C11           -4.1330     4.1886     2.0462 C.ar    
  12 C12           -3.5913     3.0109     1.5702 C.ar    
  13 C13            1.1998    -0.3711    -0.4732 C.ar    
  14 C14            2.0416     0.1520    -1.4544 C.ar    
  15 C15            1.6102    -1.4848     0.2703 C.ar    
  16 C16            2.8444    -2.0600     0.0214 C.ar    
  17 C17            3.6686    -1.5362    -0.9582 C.ar    
  18 C18            3.2694    -0.4327    -1.6909 C.ar    
  19 C19            0.8449     2.4318     0.2739 C.ar    
  20 C20            0.6441     3.7768    -0.0353 C.ar    
  21 C21            2.0865     2.0089     0.7478 C.ar    
  22 C22            3.1099     2.9214     0.9029 C.ar    
  23 C23            2.9062     4.2533     0.5895 C.ar    
  24 C24            1.6752     4.6799     0.1241 C.ar    
  25 C25           -6.0150     5.8277     2.2315 C.3     
  26 O26            0.8000    -1.9985     1.2329 O.3     
  27 C27            1.2851    -3.1350     1.9506 C.3     
  28 H28           -4.3766     0.2617     0.0073 H       
  29 H29           -6.2276     1.9103    -0.2431 H       
  30 H30           -7.1864     4.0062     0.6197 H       
  31 H31           -3.5482     4.8306     2.6882 H       
  32 H32           -2.5821     2.7334     1.8367 H       
  33 H33            1.7330     1.0131    -2.0286 H       
  34 H34            3.1643    -2.9186     0.5930 H       
  35 H35            4.6309    -1.9880    -1.1487 H       
  36 H36            3.9190    -0.0300    -2.4540 H       
  37 H37           -0.3163     4.1109    -0.3990 H       
  38 H38            2.2466     0.9694     0.9931 H       
  39 H39            4.0718     2.5951     1.2701 H       
  40 H40            3.7101     4.9639     0.7129 H       
  41 H41            1.5222     5.7210    -0.1190 H       
  42 H42           -6.5125     5.6363     3.1822 H       
  43 H43           -5.2205     6.5594     2.3780 H       
  44 H44           -6.7385     6.2156     1.5144 H       
  45 H45            1.4681    -3.9535     1.2543 H       
  46 H46            2.2141    -2.8750     2.4579 H       
  47 H47            0.5430    -3.4435     2.6870 H       
  48 Br48           9.6309    11.5594     8.1822 Br      
@<TRIPOS>BOND
   1    1    2 2
   2    1   19 1
   3    1    5 1
   4    2    3 1
   5    2   13 1
   6    3    4 1
   7    4    5 2
   8    4    6 1
   9    6    7 1
  10    6   28 1
  11    7    8 ar
  12    7   12 ar
  13    8    9 ar
  14    8   29 1
  15    9   10 ar
  16    9   30 1
  17   10   11 ar
  18   10   25 1
  19   11   12 ar
  20   11   31 1
  21   12   32 1
  22   13   14 ar
  23   13   15 ar
  24   14   18 ar
  25   14   33 1
  26   15   16 ar
  27   15   26 1
  28   16   17 ar
  29   16   34 1
  30   17   18 ar
  31   17   35 1
  32   18   36 1
  33   19   20 ar
  34   19   21 ar
  35   20   24 ar
  36   20   37 1
  37   21   22 ar
  38   21   38 1
  39   22   23 ar
  40   22   39 1
  41   23   24 ar
  42   23   40 1
  43   24   41 1
  44   25   42 1
  45   25   43 1
  46   25   44 1
  47   26   27 1
  48   27   45 1
  49   27   46 1
  50   27   47 1

#	End of record

