#	Name: ASD01918594
#	Creating user name:	WinNT
#	Creation time:	15. 06. 2019 20:11

#	Modifying user name:	WinNT
#	Modification time:	15. 06. 2019 20:11

#	Program:	/corina/corina34_cracker 3.40 0067  02.08.2006

@<TRIPOS>MOLECULE
ASD01918594
  42   45    0    0    0
SMALL
NO_CHARGES


@<TRIPOS>ATOM
   1 C1            -0.0043     1.4956    -0.1863 C.3     
   2 C2             0.0133    -0.0065    -0.0659 C.ar    
   3 C3             0.0210    -0.6096     1.1842 C.ar    
   4 C4             0.0367    -1.9919     1.2503 C.ar    
   5 C5             0.0442    -2.7252     0.0692 C.ar    
   6 N6             0.0600    -4.1172     0.1213 N.am    
   7 C7            -0.0372    -4.8352    -1.0151 C.2     
   8 O8            -0.2333    -4.2723    -2.0753 O.2     
   9 C9             0.0939    -6.3016    -0.9733 C.2     
  10 C10            0.0021    -7.0556    -2.1352 C.2     
  11 C11            0.1323    -8.4535    -2.0568 C.2     
  12 C12            0.3477    -9.0700    -0.8482 C.2     
  13 N13            0.4415    -8.3575     0.3018 N.pl3   
  14 N14            0.6527    -8.7217     1.6398 N.2     
  15 C15            0.6529    -7.6157     2.3445 C.2     
  16 N16            0.4560    -6.5767     1.5423 N.2     
  17 C17            0.3300    -6.9956     0.2933 C.2     
  18 C18            0.0355    -9.2711    -3.2921 C.ar    
  19 C19           -1.1988    -9.4961    -3.8969 C.ar    
  20 N20           -1.2862   -10.2216    -4.9932 N.ar    
  21 C21           -0.2228   -10.7589    -5.5587 C.ar    
  22 C22            1.0381   -10.5815    -5.0188 C.ar    
  23 C23            1.1820    -9.8226    -3.8701 C.ar    
  24 C24            2.5400    -9.6013    -3.2554 C.3     
  25 N25            0.0360    -2.1128    -1.1045 N.ar    
  26 C26            0.0162    -0.7972    -1.1983 C.ar    
  27 H27           -1.0362     1.8462    -0.2099 H       
  28 H28            0.5091     1.9347     0.6690 H       
  29 H29            0.5013     1.7924    -1.1052 H       
  30 H30            0.0152    -0.0137     2.0849 H       
  31 H31            0.0434    -2.4940     2.2064 H       
  32 H32            0.1409    -4.5698     0.9755 H       
  33 H33           -0.1675    -6.5747    -3.0872 H       
  34 H34            0.4441   -10.1451    -0.8131 H       
  35 H35            0.7914    -7.5589     3.4140 H       
  36 H36           -2.0924    -9.0724    -3.4630 H       
  37 H37           -0.3385   -11.3470    -6.4572 H       
  38 H38            1.9015   -11.0270    -5.4904 H       
  39 H39            2.7474   -10.3947    -2.5373 H       
  40 H40            3.2990    -9.6117    -4.0376 H       
  41 H41            2.5558    -8.6375    -2.7465 H       
  42 H42            0.0061    -0.3324    -2.1731 H       
@<TRIPOS>BOND
   1    1    2 1
   2    1   27 1
   3    1   28 1
   4    1   29 1
   5    2   26 ar
   6    2    3 ar
   7    3    4 ar
   8    3   30 1
   9    4    5 ar
  10    4   31 1
  11    5    6 1
  12    5   25 ar
  13    6    7 am
  14    6   32 1
  15    7    8 2
  16    7    9 1
  17    9   17 1
  18    9   10 2
  19   10   11 1
  20   10   33 1
  21   11   12 2
  22   11   18 1
  23   12   13 1
  24   12   34 1
  25   13   17 1
  26   13   14 1
  27   14   15 2
  28   15   16 1
  29   15   35 1
  30   16   17 2
  31   18   23 ar
  32   18   19 ar
  33   19   20 ar
  34   19   36 1
  35   20   21 ar
  36   21   22 ar
  37   21   37 1
  38   22   23 ar
  39   22   38 1
  40   23   24 1
  41   24   39 1
  42   24   40 1
  43   24   41 1
  44   25   26 ar
  45   26   42 1

#	End of record

