#	Name: ASD05143100
#	Creating user name:	WinNT
#	Creation time:	15. 06. 2019 20:57

#	Modifying user name:	WinNT
#	Modification time:	15. 06. 2019 20:57

#	Program:	/corina/corina34_cracker 3.40 0067  02.08.2006

@<TRIPOS>MOLECULE
ASD05143100
 144  148    0    0    0
SMALL
NO_CHARGES


@<TRIPOS>ATOM
   1 C1             2.0376     2.1426     6.9336 C.2     
   2 C2             2.5384     1.2777     8.0615 C.3     
   3 N3             2.7565     3.2097     6.5323 N.am    
   4 O4             0.9902     1.8755     6.3837 O.2     
   5 C5             2.2697     4.0504     5.4357 C.3     
   6 C6             2.1259     3.2041     4.1693 C.3     
   7 C7             0.9298     4.6325     5.8058 C.2     
   8 C8             3.5063     2.7222     3.7184 C.3     
   9 C9             3.3624     1.8759     2.4519 C.3     
  10 N10            4.6842     1.4145     2.0202 N.pl3   
  11 C11            4.8059     0.6320     0.8964 C.2     
  12 N12            6.0463     0.1990     0.4912 N.pl3   
  13 N13            3.7453     0.3007     0.2150 N.2     
  14 O14            0.3458     4.2321     6.7905 O.2     
  15 N15            0.3805     5.5979     5.0425 N.am    
  16 C16           -0.9649     6.0862     5.3381 C.3     
  17 C17           -0.8479     7.3598     6.1825 C.3     
  18 C18           -1.6627     7.2094     7.4666 C.3     
  19 C19           -1.4660     8.4244     8.3318 C.2     
  20 N20           -2.5480     9.0159     8.9191 N.am    
  21 C21           -2.2519    10.2256     9.7191 C.3     
  22 C22           -3.5309    11.0599     9.8460 C.3     
  23 C23           -3.4896    12.2205     8.8468 C.3     
  24 C24           -4.8764    12.8693     8.7532 C.3     
  25 N25           -4.9836    13.5923     7.4695 N.am    
  26 C26           -5.0497    13.8459     9.8893 C.2     
  27 N27           -5.3775    13.3991    11.1178 N.am    
  28 O28           -4.8942    15.0332     9.6973 O.2     
  29 C29           -6.0199    13.2715     6.6500 C.2     
  30 O30           -6.7447    12.3342     6.9069 O.2     
  31 C31           -6.2748    14.1132     5.4301 C.3     
  32 N32           -6.8218    13.2762     4.3370 N.am    
  33 C33           -7.2834    15.2136     5.7774 C.3     
  34 C34           -5.9077    12.6495     3.5370 C.2     
  35 O35           -4.7284    12.6541     3.8370 O.2     
  36 C36           -6.3603    11.9838     2.2668 C.3     
  37 N37           -5.2850    11.1367     1.7171 N.am    
  38 C38           -7.6091    11.1431     2.5180 C.3     
  39 C39           -4.7155    10.2348     2.5531 C.2     
  40 O40           -5.1105    10.1039     3.6950 O.2     
  41 C41           -3.5512     9.3774     2.1116 C.3     
  42 C42           -7.4499    16.1336     4.5955 C.2     
  43 C43           -8.3513    15.9362     3.4577 C.ar    
  44 C44           -8.1607    17.0454     2.6139 C.ar    
  45 N45           -7.2121    17.8484     3.2064 N.pl3   
  46 C46           -6.8046    17.2923     4.3884 C.2     
  47 C47           -9.2676    14.9429     3.1066 C.ar    
  48 C48           -9.9754    15.0537     1.9432 C.ar    
  49 C49           -9.7906    16.1462     1.1067 C.ar    
  50 C50           -8.8925    17.1380     1.4342 C.ar    
  51 N51           -3.9993     7.9734     2.0708 N.am    
  52 C52           -2.4273     9.5904     3.1289 C.3     
  53 C53           -1.9922    11.0329     3.1022 C.ar    
  54 C54           -1.9541    11.7658     4.2748 C.ar    
  55 C55           -1.5540    13.0902     4.2496 C.ar    
  56 C56           -1.1928    13.6800     3.0531 C.ar    
  57 C57           -1.2312    12.9469     1.8814 C.ar    
  58 C58           -1.6257    11.6225     1.9068 C.ar    
  59 C59           -1.7435     6.3843     4.0890 C.2     
  60 O60           -2.8959     6.7817     4.2265 O.2     
  61 C61           -8.1196    10.5791     1.1905 C.3     
  62 C62           -9.3715     9.7363     1.4423 C.3     
  63 N63           -9.8604     9.1962     0.1713 N.pl3   
  64 C64          -10.9826     8.4023     0.1479 C.2     
  65 N65          -11.6461     8.1153     1.3174 N.pl3   
  66 N66          -11.4176     7.9218    -0.9829 N.2     
  67 N67           -1.2762     6.2084     2.8404 N.am    
  68 C68           -1.7198     6.9407     1.6466 C.3     
  69 C69           -3.2152     6.9789     1.5998 C.2     
  70 O70           -3.7879     6.0226     1.0793 O.2     
  71 O71           -0.3517     8.8754     8.5089 O.2     
  72 Cl72          -2.4084    11.0245     5.7774 Cl      
  73 C73           -0.2761     5.2277     2.4180 C.3     
  74 C74           -0.5114     4.9424     0.9285 C.3     
  75 C75           -1.1637     6.2305     0.4032 C.3     
  76 H76            2.1588     1.6604     9.0089 H       
  77 H77            2.1905     0.2549     7.9172 H       
  78 H78            3.6283     1.2924     8.0743 H       
  79 H79            3.5963     3.4209     6.9694 H       
  80 H80            2.9791     4.8579     5.2545 H       
  81 H81            1.4907     2.3432     4.3778 H       
  82 H82            1.6752     3.8054     3.3797 H       
  83 H83            4.1414     3.5832     3.5099 H       
  84 H84            3.9569     2.1209     4.5080 H       
  85 H85            2.7273     1.0150     2.6604 H       
  86 H86            2.9118     2.4772     1.6624 H       
  87 H87            5.4734     1.6611     2.5274 H       
  88 H88            6.8355     0.4456     0.9983 H       
  89 H89            6.1321    -0.3531    -0.3017 H       
  90 H90            3.8312    -0.2514    -0.5780 H       
  91 H91            0.8781     5.9687     4.2970 H       
  92 H92           -1.5001     5.3304     5.9241 H       
  93 H93            0.2004     7.5215     6.4360 H       
  94 H94           -1.2191     8.2088     5.6107 H       
  95 H95           -2.7177     7.1065     7.2175 H       
  96 H96           -1.3293     6.3226     8.0063 H       
  97 H97           -3.4461     8.6644     8.8237 H       
  98 H98           -1.9104     9.9315    10.7119 H       
  99 H99           -1.4786    10.8132     9.2256 H       
 100 H100          -4.3974    10.4322     9.6408 H       
 101 H101          -3.6012    11.4550    10.8602 H       
 102 H102          -2.7661    12.9627     9.1840 H       
 103 H103          -3.1959    11.8478     7.8668 H       
 104 H104          -5.6446    12.1003     8.8149 H       
 105 H105          -4.3396    14.2758     7.2167 H       
 106 H106          -5.5020    12.4494    11.2713 H       
 107 H107          -5.4890    14.0272    11.8486 H       
 108 H108          -5.3405    14.5717     5.1074 H       
 109 H109          -7.7811    13.1943     4.2035 H       
 110 H110          -8.2440    14.7613     6.0239 H       
 111 H111          -6.9197    15.7830     6.6327 H       
 112 H112          -6.6010    12.7616     1.5332 H       
 113 H113          -4.9986    11.2276     0.7917 H       
 114 H114          -7.3647    10.3219     3.1917 H       
 115 H115          -8.3815    11.7658     2.9693 H       
 116 H116          -3.2232     9.6991     1.1264 H       
 117 H117          -6.8843    18.6855     2.8421 H       
 118 H118          -6.0673    17.7187     5.0525 H       
 119 H119          -9.4161    14.0899     3.7520 H       
 120 H120         -10.6840    14.2852     1.6720 H       
 121 H121         -10.3572    16.2196     0.1902 H       
 122 H122          -8.7561    17.9841     0.7770 H       
 123 H123          -4.9063     7.7514     2.4092 H       
 124 H124          -2.7873     9.3378     4.1263 H       
 125 H125          -1.5817     8.9511     2.8753 H       
 126 H126          -1.5244    13.6630     5.1647 H       
 127 H127          -0.8809    14.7138     3.0333 H       
 128 H128          -0.9492    13.4083     0.9466 H       
 129 H129          -1.6551    11.0503     0.9913 H       
 130 H130          -8.3640    11.4003     0.5168 H       
 131 H131          -7.3472     9.9564     0.7392 H       
 132 H132          -9.1272     8.9151     2.1161 H       
 133 H133         -10.1440    10.3590     1.8936 H       
 134 H134          -9.3923     9.3987    -0.6538 H       
 135 H135         -11.3224     8.4729     2.1590 H       
 136 H136         -12.4379     7.5552     1.3009 H       
 137 H137         -12.2094     7.3617    -0.9994 H       
 138 H138          -1.2834     7.9393     1.6641 H       
 139 H139           0.7221     5.6391     2.5501 H       
 140 H140          -0.3945     4.3087     2.9862 H       
 141 H141           0.4327     4.7525     0.4246 H       
 142 H142          -1.1864     4.0953     0.8063 H       
 143 H143          -1.9627     6.0012    -0.3001 H       
 144 H144          -0.4105     6.8592    -0.0784 H       
@<TRIPOS>BOND
   1    1    2 1
   2    1    3 am
   3    1    4 2
   4    2   76 1
   5    2   77 1
   6    2   78 1
   7    3    5 1
   8    3   79 1
   9    5    6 1
  10    5    7 1
  11    5   80 1
  12    6    8 1
  13    6   81 1
  14    6   82 1
  15    7   14 2
  16    7   15 am
  17    8    9 1
  18    8   83 1
  19    8   84 1
  20    9   10 1
  21    9   85 1
  22    9   86 1
  23   10   11 1
  24   10   87 1
  25   11   12 1
  26   11   13 2
  27   12   88 1
  28   12   89 1
  29   13   90 1
  30   15   16 1
  31   15   91 1
  32   16   17 1
  33   16   59 1
  34   16   92 1
  35   17   18 1
  36   17   93 1
  37   17   94 1
  38   18   19 1
  39   18   95 1
  40   18   96 1
  41   19   20 am
  42   19   71 2
  43   20   21 1
  44   20   97 1
  45   21   22 1
  46   21   98 1
  47   21   99 1
  48   22   23 1
  49   22  100 1
  50   22  101 1
  51   23   24 1
  52   23  102 1
  53   23  103 1
  54   24   25 1
  55   24   26 1
  56   24  104 1
  57   25   29 am
  58   25  105 1
  59   26   27 am
  60   26   28 2
  61   27  106 1
  62   27  107 1
  63   29   30 2
  64   29   31 1
  65   31   32 1
  66   31   33 1
  67   31  108 1
  68   32   34 am
  69   32  109 1
  70   33   42 1
  71   33  110 1
  72   33  111 1
  73   34   35 2
  74   34   36 1
  75   36   37 1
  76   36   38 1
  77   36  112 1
  78   37   39 am
  79   37  113 1
  80   38   61 1
  81   38  114 1
  82   38  115 1
  83   39   40 2
  84   39   41 1
  85   41   51 1
  86   41   52 1
  87   41  116 1
  88   42   43 1
  89   42   46 2
  90   43   44 ar
  91   43   47 ar
  92   44   45 1
  93   44   50 ar
  94   45   46 1
  95   45  117 1
  96   46  118 1
  97   47   48 ar
  98   47  119 1
  99   48   49 ar
 100   48  120 1
 101   49   50 ar
 102   49  121 1
 103   50  122 1
 104   51   69 am
 105   51  123 1
 106   52   53 1
 107   52  124 1
 108   52  125 1
 109   53   54 ar
 110   53   58 ar
 111   54   55 ar
 112   54   72 1
 113   55   56 ar
 114   55  126 1
 115   56   57 ar
 116   56  127 1
 117   57   58 ar
 118   57  128 1
 119   58  129 1
 120   59   60 2
 121   59   67 am
 122   61   62 1
 123   61  130 1
 124   61  131 1
 125   62   63 1
 126   62  132 1
 127   62  133 1
 128   63   64 1
 129   63  134 1
 130   64   65 1
 131   64   66 2
 132   65  135 1
 133   65  136 1
 134   66  137 1
 135   67   68 1
 136   67   73 1
 137   68   69 1
 138   68   75 1
 139   68  138 1
 140   69   70 2
 141   73   74 1
 142   73  139 1
 143   73  140 1
 144   74   75 1
 145   74  141 1
 146   74  142 1
 147   75  143 1
 148   75  144 1

#	End of record

