#	Name: ASD00311018
#	Creating user name:	WinNT
#	Creation time:	15. 06. 2019 18:34

#	Modifying user name:	WinNT
#	Modification time:	15. 06. 2019 18:34

#	Program:	/corina/corina34_cracker 3.40 0067  02.08.2006

@<TRIPOS>MOLECULE
ASD00311018
  33   35    0    0    0
SMALL
NO_CHARGES


@<TRIPOS>ATOM
   1 C1            -0.0158     1.3141     0.0093 C.ar    
   2 N2             0.0021    -0.0041     0.0020 N.ar    
   3 C3             1.1287    -0.6886    -0.0124 C.ar    
   4 C4             2.3502    -0.0441    -0.0206 C.ar    
   5 C5             2.3790     1.3544    -0.0133 C.ar    
   6 C6             1.1595     2.0395     0.0019 C.ar    
   7 C7             3.6717     3.5543    -0.0134 C.2     
   8 C8             3.6652     2.0895    -0.0212 C.2     
   9 C9             6.0770     6.3772    -0.0202 C.ar    
  10 C10            4.8495     5.6971    -0.0127 C.ar    
  11 C11            4.8430     4.2237    -0.0205 C.2     
  12 C12            6.0948     7.7477    -0.0126 C.ar    
  13 C13            4.8570     8.4318     0.0028 C.ar    
  14 C14            3.6536     7.6818     0.0098 C.ar    
  15 N15            3.6979     6.3484     0.0018 N.ar    
  16 O16            4.7159     1.4767    -0.0341 O.2     
  17 C17            2.4230     8.3645     0.0253 C.ar    
  18 C18            2.4059     9.7253     0.0332 C.ar    
  19 C19            3.5903    10.4585     0.0258 C.ar    
  20 C20            4.8006     9.8322     0.0118 C.ar    
  21 O21            7.2673     8.4291    -0.0193 O.3     
  22 H22           -0.9625     1.8339     0.0165 H       
  23 H23            1.0959    -1.7681    -0.0175 H       
  24 H24            3.2691    -0.6113    -0.0320 H       
  25 H25            1.1373     3.1192     0.0076 H       
  26 H26            2.7388     4.0983    -0.0019 H       
  27 H27            7.0040     5.8230    -0.0276 H       
  28 H28            5.7758     3.6796    -0.0319 H       
  29 H29            1.4958     7.8106     0.0305 H       
  30 H30            1.4592    10.2449     0.0450 H       
  31 H31            3.5489    11.5377     0.0319 H       
  32 H32            5.7117    10.4121     0.0065 H       
  33 H33            7.5994     8.6317    -0.9045 H       
@<TRIPOS>BOND
   1    1    2 ar
   2    1    6 ar
   3    1   22 1
   4    2    3 ar
   5    3    4 ar
   6    3   23 1
   7    4    5 ar
   8    4   24 1
   9    5    6 ar
  10    5    8 1
  11    6   25 1
  12    7    8 1
  13    7   11 2
  14    7   26 1
  15    8   16 2
  16    9   10 ar
  17    9   12 ar
  18    9   27 1
  19   10   11 1
  20   10   15 ar
  21   11   28 1
  22   12   13 ar
  23   12   21 1
  24   13   14 ar
  25   13   20 ar
  26   14   15 ar
  27   14   17 ar
  28   17   18 ar
  29   17   29 1
  30   18   19 ar
  31   18   30 1
  32   19   20 ar
  33   19   31 1
  34   20   32 1
  35   21   33 1

#	End of record

