#	Name: ASD00061040
#	Creating user name:	WinNT
#	Creation time:	15. 06. 2019 18:29

#	Modifying user name:	WinNT
#	Modification time:	15. 06. 2019 18:29

#	Program:	/corina/corina34_cracker 3.40 0067  02.08.2006

@<TRIPOS>MOLECULE
ASD00061040
  49   51    0    0    0
SMALL
NO_CHARGES


@<TRIPOS>ATOM
   1 C1            -1.2484    -0.8014    -0.4748 C.ar    
   2 C2            -1.7682    -2.1217    -0.4790 C.ar    
   3 C3            -3.1575    -2.3258    -0.3695 C.ar    
   4 C4            -3.9937    -1.2641    -0.2606 C.ar    
   5 C5            -3.4911     0.0527    -0.2551 C.ar    
   6 C6            -2.1263     0.2855    -0.3664 C.ar    
   7 C7            -4.4177     1.1871    -0.1365 C.2     
   8 C8            -5.8999     0.9405    -0.0212 C.3     
   9 O9            -3.9895     2.3219    -0.1313 O.2     
  10 C10           -6.6189     2.2661     0.2369 C.3     
  11 C11           -8.1089     2.0410     0.2202 C.ar    
  12 C12           -8.8985     2.7086    -0.6973 C.ar    
  13 C13          -10.2652     2.5021    -0.7127 C.ar    
  14 C14          -10.8424     1.6277     0.1891 C.ar    
  15 C15          -10.0526     0.9594     1.1060 C.ar    
  16 C16           -8.6854     1.1626     1.1185 C.ar    
  17 C17            0.1406    -0.6019    -0.5855 C.ar    
  18 C18            0.9718    -1.6715    -0.6951 C.ar    
  19 C19            0.4665    -2.9762    -0.6998 C.ar    
  20 C20           -0.8870    -3.2072    -0.5929 C.ar    
  21 O21            1.3202    -4.0265    -0.8111 O.3     
  22 C22            2.7123    -3.7224    -0.9186 C.3     
  23 C23           -6.2014     2.8153     1.6026 C.3     
  24 C24           -6.9885     4.0647     1.9036 C.2     
  25 O25           -7.6510     4.1332     2.9116 O.2     
  26 O26           -6.9534     5.1015     1.0517 O.3     
  27 C27           -6.4746     1.7815     2.6646 C.2     
  28 O28           -7.4835     1.8471     3.3262 O.2     
  29 O29           -5.5971     0.7879     2.8755 O.3     
  30 H30           -3.5572    -3.3291    -0.3726 H       
  31 H31           -5.0578    -1.4294    -0.1774 H       
  32 H32           -1.7442     1.2956    -0.3616 H       
  33 H33           -6.2684     0.5018    -0.9484 H       
  34 H34           -6.0912     0.2564     0.8056 H       
  35 H35           -6.3509     2.9821    -0.5400 H       
  36 H36           -8.4476     3.3918    -1.4018 H       
  37 H37          -10.8822     3.0243    -1.4290 H       
  38 H38          -11.9103     1.4669     0.1776 H       
  39 H39          -10.5036     0.2765     1.8107 H       
  40 H40           -8.0684     0.6405     1.8348 H       
  41 H41            0.5451     0.3995    -0.5836 H       
  42 H42            2.0366    -1.5123    -0.7800 H       
  43 H43           -1.2676    -4.2179    -0.5968 H       
  44 H44            2.8832    -3.1109    -1.8046 H       
  45 H45            3.0343    -3.1758    -0.0322 H       
  46 H46            3.2812    -4.6485    -1.0011 H       
  47 H47           -5.1372     3.0505     1.5898 H       
  48 H48           -7.5318     5.8511     1.2484 H       
  49 H49           -5.8157     0.1487     3.5674 H       
@<TRIPOS>BOND
   1    1    2 ar
   2    1   17 ar
   3    1    6 ar
   4    2    3 ar
   5    2   20 ar
   6    3    4 ar
   7    3   30 1
   8    4    5 ar
   9    4   31 1
  10    5    6 ar
  11    5    7 1
  12    6   32 1
  13    7    8 1
  14    7    9 2
  15    8   10 1
  16    8   33 1
  17    8   34 1
  18   10   11 1
  19   10   23 1
  20   10   35 1
  21   11   12 ar
  22   11   16 ar
  23   12   13 ar
  24   12   36 1
  25   13   14 ar
  26   13   37 1
  27   14   15 ar
  28   14   38 1
  29   15   16 ar
  30   15   39 1
  31   16   40 1
  32   17   18 ar
  33   17   41 1
  34   18   19 ar
  35   18   42 1
  36   19   20 ar
  37   19   21 1
  38   20   43 1
  39   21   22 1
  40   22   44 1
  41   22   45 1
  42   22   46 1
  43   23   24 1
  44   23   27 1
  45   23   47 1
  46   24   25 2
  47   24   26 1
  48   26   48 1
  49   27   28 2
  50   27   29 1
  51   29   49 1

#	End of record

