#	Name: ASD06170130
#	Creating user name:	WinNT
#	Creation time:	15. 06. 2019 21:05

#	Modifying user name:	WinNT
#	Modification time:	15. 06. 2019 21:05

#	Program:	/corina/corina34_cracker 3.40 0067  02.08.2006

@<TRIPOS>MOLECULE
ASD06170130
  67   71    0    0    0
SMALL
NO_CHARGES


@<TRIPOS>ATOM
   1 C1             0.0363     1.9546    -0.2418 C.2     
   2 C2             0.0931     0.4968    -0.4668 C.ar    
   3 C3             1.3287    -0.1486    -0.5690 C.ar    
   4 C4             1.3771    -1.5103    -0.7786 C.ar    
   5 C5             0.1972    -2.2410    -0.8889 C.ar    
   6 C6            -1.0318    -1.6013    -0.7882 C.ar    
   7 C7            -1.0878    -0.2418    -0.5725 C.ar    
   8 O8             1.0651     2.5953    -0.1451 O.2     
   9 N9            -1.1560     2.5762    -0.1492 N.am    
  10 F10            2.5704    -2.1360    -0.8776 F       
  11 C11           -1.2124     4.0230     0.0741 C.3     
  12 N12           -4.6857     5.1280    -0.4933 N.am    
  13 N13           -4.6476     5.0464     0.9048 N.pl3   
  14 C14           -3.3869     4.6370     1.2729 C.2     
  15 C15           -2.6515     4.4656     0.1385 C.2     
  16 C16           -3.4730     4.7754    -0.9641 C.2     
  17 C17           -2.9130     4.4218     2.6555 C.ar    
  18 C18           -2.2208     3.2550     2.9860 C.ar    
  19 C19           -1.7808     3.0607     4.2789 C.ar    
  20 C20           -2.0244     4.0186     5.2473 C.ar    
  21 C21           -2.7101     5.1769     4.9267 C.ar    
  22 C22           -3.1503     5.3869     3.6364 C.ar    
  23 O23           -3.1448     4.7318    -2.1366 O.2     
  24 C24           -5.7560     5.3447     1.8152 C.3     
  25 C25           -5.8424     5.5214    -1.3018 C.3     
  26 O26            0.2478    -3.5817    -1.0958 O.3     
  27 N27            0.9011    -6.0019     2.1795 N.ar    
  28 C28            0.7351    -4.7096     2.3364 C.ar    
  29 C29            0.5132    -3.8632     1.2573 C.ar    
  30 C30            0.4633    -4.3836    -0.0238 C.ar    
  31 C31            0.6433    -5.7762    -0.1807 C.ar    
  32 C32            0.6063    -6.3766    -1.4481 C.ar    
  33 C33            0.7847    -7.7250    -1.5623 C.ar    
  34 C34            1.0040    -8.5160    -0.4255 C.ar    
  35 C35            1.0442    -7.9576     0.8195 C.ar    
  36 C36            0.8650    -6.5724     0.9694 C.ar    
  37 O37            1.1785    -9.8564    -0.5650 O.3     
  38 C38            1.3980   -10.6098     0.6293 C.3     
  39 O39            0.7489    -8.3070    -2.7907 O.3     
  40 C40            0.5212    -7.4476    -3.9095 C.3     
  41 H41            2.2439     0.4186    -0.4841 H       
  42 H42           -1.9449    -2.1714    -0.8750 H       
  43 H43           -2.0440     0.2533    -0.4900 H       
  44 H44           -1.9767     2.0656    -0.2303 H       
  45 H45           -0.7154     4.2653     1.0135 H       
  46 H46           -0.7104     4.5370    -0.7456 H       
  47 H47           -2.0307     2.5063     2.2313 H       
  48 H48           -1.2453     2.1587     4.5359 H       
  49 H49           -1.6780     3.8613     6.2580 H       
  50 H50           -2.8974     5.9201     5.6876 H       
  51 H51           -3.6812     6.2935     3.3864 H       
  52 H52           -6.6303     5.6442     1.2373 H       
  53 H53           -5.9943     4.4567     2.4007 H       
  54 H54           -5.4681     6.1550     2.4849 H       
  55 H55           -5.8297     6.6007    -1.4531 H       
  56 H56           -5.7983     5.0185    -2.2678 H       
  57 H57           -6.7597     5.2376    -0.7859 H       
  58 H58            0.7721    -4.2925     3.3319 H       
  59 H59            0.3794    -2.8036     1.4178 H       
  60 H60            0.4372    -5.7749    -2.3289 H       
  61 H61            1.2133    -8.5788     1.6865 H       
  62 H62            1.5215   -11.6630     0.3770 H       
  63 H63            2.2975   -10.2476     1.1272 H       
  64 H64            0.5426   -10.4934     1.2947 H       
  65 H65           -0.4406    -6.9480    -3.7940 H       
  66 H66            1.3142    -6.7016    -3.9618 H       
  67 H67            0.5164    -8.0377    -4.8259 H       
@<TRIPOS>BOND
   1    1    2 1
   2    1    8 2
   3    1    9 am
   4    2    3 ar
   5    2    7 ar
   6    3    4 ar
   7    3   41 1
   8    4    5 ar
   9    4   10 1
  10    5    6 ar
  11    5   26 1
  12    6    7 ar
  13    6   42 1
  14    7   43 1
  15    9   11 1
  16    9   44 1
  17   11   15 1
  18   11   45 1
  19   11   46 1
  20   12   13 1
  21   12   16 am
  22   12   25 1
  23   13   14 1
  24   13   24 1
  25   14   15 2
  26   14   17 1
  27   15   16 1
  28   16   23 2
  29   17   18 ar
  30   17   22 ar
  31   18   19 ar
  32   18   47 1
  33   19   20 ar
  34   19   48 1
  35   20   21 ar
  36   20   49 1
  37   21   22 ar
  38   21   50 1
  39   22   51 1
  40   24   52 1
  41   24   53 1
  42   24   54 1
  43   25   55 1
  44   25   56 1
  45   25   57 1
  46   26   30 1
  47   27   28 ar
  48   27   36 ar
  49   28   29 ar
  50   28   58 1
  51   29   30 ar
  52   29   59 1
  53   30   31 ar
  54   31   32 ar
  55   31   36 ar
  56   32   33 ar
  57   32   60 1
  58   33   34 ar
  59   33   39 1
  60   34   35 ar
  61   34   37 1
  62   35   36 ar
  63   35   61 1
  64   37   38 1
  65   38   62 1
  66   38   63 1
  67   38   64 1
  68   39   40 1
  69   40   65 1
  70   40   66 1
  71   40   67 1

#	End of record

