#	Name: ASD01910564
#	Creating user name:	WinNT
#	Creation time:	15. 06. 2019 19:56

#	Modifying user name:	WinNT
#	Modification time:	15. 06. 2019 19:56

#	Program:	/corina/corina34_cracker 3.40 0067  02.08.2006

@<TRIPOS>MOLECULE
ASD01910564
  42   45    0    0    0
SMALL
NO_CHARGES


@<TRIPOS>ATOM
   1 O1             0.0876     0.2017     0.1078 O.3     
   2 C2             0.1326    -1.0087     0.6899 C.2     
   3 N3             1.4140    -1.2917     0.8743 N.2     
   4 C4             2.0872    -0.2361     0.3937 C.2     
   5 N5             1.2147     0.6206    -0.0502 N.2     
   6 C6            -1.0137    -1.8524     1.0513 C.2     
   7 C7            -2.3428    -1.5470     0.8543 C.2     
   8 C8            -3.0914    -2.6257     1.3436 C.2     
   9 C9            -2.2239    -3.5500     1.8201 C.2     
  10 N10           -0.9548    -3.0924     1.6420 N.pl3   
  11 C11            3.9749     1.1707     1.1787 C.3     
  12 C12            3.5850    -0.0718     0.3719 C.3     
  13 C13            4.0597     0.0938    -1.0736 C.3     
  14 C14            5.5840     0.2278    -1.0995 C.3     
  15 C15            5.9966     1.4737    -0.3094 C.3     
  16 N16            5.4211     1.3901     1.0399 N.am    
  17 C17            6.2049     1.5118     2.1295 C.2     
  18 C18            7.6678     1.6477     1.9756 C.ar    
  19 O19            5.7080     1.5098     3.2390 O.2     
  20 C20            8.1949     2.5991     1.0997 C.ar    
  21 C21            9.5607     2.7220     0.9603 C.ar    
  22 C22           10.4108     1.9031     1.6878 C.ar    
  23 C23            9.8928     0.9565     2.5585 C.ar    
  24 C24            8.5286     0.8291     2.7099 C.ar    
  25 F25           -4.4387    -2.7256     1.3412 F       
  26 F26           11.7487     2.0277     1.5474 F       
  27 H27           -2.7342    -0.6452     0.4070 H       
  28 H28           -2.4945    -4.4963     2.2646 H       
  29 H29           -0.1438    -3.5603     1.8955 H       
  30 H30            3.4356     2.0379     0.7977 H       
  31 H31            3.7279     1.0167     2.2291 H       
  32 H32            4.0545    -0.9524     0.8104 H       
  33 H33            3.7619    -0.7783    -1.6558 H       
  34 H34            3.6092     0.9883    -1.5035 H       
  35 H35            6.0347    -0.6556    -0.6472 H       
  36 H36            5.9234     0.3222    -2.1310 H       
  37 H37            7.0835     1.5196    -0.2408 H       
  38 H38            5.6221     2.3656    -0.8118 H       
  39 H39            7.5336     3.2372     0.5323 H       
  40 H40            9.9694     3.4572     0.2829 H       
  41 H41           10.5594     0.3210     3.1225 H       
  42 H42            8.1262     0.0917     3.3886 H       
@<TRIPOS>BOND
   1    1    2 1
   2    1    5 1
   3    2    3 2
   4    2    6 1
   5    3    4 1
   6    4    5 2
   7    4   12 1
   8    6    7 2
   9    6   10 1
  10    7    8 1
  11    7   27 1
  12    8    9 2
  13    8   25 1
  14    9   10 1
  15    9   28 1
  16   10   29 1
  17   11   12 1
  18   11   16 1
  19   11   30 1
  20   11   31 1
  21   12   13 1
  22   12   32 1
  23   13   14 1
  24   13   33 1
  25   13   34 1
  26   14   15 1
  27   14   35 1
  28   14   36 1
  29   15   16 1
  30   15   37 1
  31   15   38 1
  32   16   17 am
  33   17   18 1
  34   17   19 2
  35   18   20 ar
  36   18   24 ar
  37   20   21 ar
  38   20   39 1
  39   21   22 ar
  40   21   40 1
  41   22   23 ar
  42   22   26 1
  43   23   24 ar
  44   23   41 1
  45   24   42 1

#	End of record

