#	Name: ASD00450009
#	Creating user name:	WinNT
#	Creation time:	15. 06. 2019 18:35

#	Modifying user name:	WinNT
#	Modification time:	15. 06. 2019 18:35

#	Program:	/corina/corina34_cracker 3.40 0067  02.08.2006

@<TRIPOS>MOLECULE
ASD00450009
  62   66    0    0    0
SMALL
NO_CHARGES


@<TRIPOS>ATOM
   1 C1            -0.3941     2.4708     0.8721 C.2     
   2 N2            -0.4382     1.2521     0.2713 N.am    
   3 C3             0.6723     0.4824     0.1930 C.2     
   4 C4             1.9100     1.0183     0.7789 C.ar    
   5 C5             1.8605     2.2947     1.3822 C.ar    
   6 N6             0.6830     2.9693     1.3975 N.2     
   7 C7             3.1066     0.3060     0.7514 C.ar    
   8 C8             4.2401     0.8623     1.3201 C.ar    
   9 C9             4.1853     2.1231     1.9145 C.ar    
  10 C10            3.0188     2.8321     1.9483 C.ar    
  11 N11            5.4463     0.1560     1.2987 N.pl3   
  12 C12            6.6411     0.8226     1.0168 C.ar    
  13 C13            6.6167     2.1466     0.6015 C.ar    
  14 C14            7.8060     2.8050     0.3225 C.ar    
  15 C15            9.0167     2.1374     0.4595 C.ar    
  16 C16            9.0377     0.8191     0.8733 C.ar    
  17 C17            7.8563     0.1623     1.1574 C.ar    
  18 C18            7.8840    -1.2754     1.6083 C.3     
  19 N19            7.7858     4.1390    -0.0967 N.am    
  20 C20            8.7599     4.9836     0.2961 C.2     
  21 C21            8.6850     6.4083    -0.0594 C.2     
  22 O22            9.7012     4.5671     0.9448 O.2     
  23 N23            7.6605     7.0234    -0.6880 N.2     
  24 C24            7.9390     8.2858    -0.8373 C.2     
  25 N25            9.1633     8.5468    -0.3091 N.pl3   
  26 C26            9.6522     7.3717     0.1947 C.2     
  27 C27           10.9519     7.1676     0.8655 C.ar    
  28 C28           12.1395     7.2622     0.1373 C.ar    
  29 C29           13.3502     7.0708     0.7705 C.ar    
  30 C30           13.3893     6.7857     2.1237 C.ar    
  31 C31           12.2161     6.6904     2.8515 C.ar    
  32 C32           10.9991     6.8847     2.2324 C.ar    
  33 C33           -1.6990     0.7674    -0.2958 C.3     
  34 O34            0.6474    -0.6112    -0.3413 O.2     
  35 C35           12.0989     7.5722    -1.3369 C.3     
  36 F36           13.3933     7.5050    -1.8634 F       
  37 F37           11.2820     6.6408    -1.9869 F       
  38 F38           11.5836     8.8586    -1.5289 F       
  39 C39            7.0414     9.3021    -1.4950 C.3     
  40 F40            5.7493     8.7781    -1.6099 F       
  41 F41            7.0056    10.4649    -0.7178 F       
  42 F42            7.5360     9.6068    -2.7676 F       
  43 H43           -1.3009     3.0561     0.9103 H       
  44 H44            3.1498    -0.6704     0.2918 H       
  45 H45            5.0774     2.5439     2.3542 H       
  46 H46            2.9920     3.8072     2.4117 H       
  47 H47            5.4536    -0.7970     1.4796 H       
  48 H48            5.6743     2.6632     0.4954 H       
  49 H49            9.9425     2.6493     0.2422 H       
  50 H50            9.9803     0.3026     0.9790 H       
  51 H51            7.9547    -1.3140     2.6953 H       
  52 H52            6.9705    -1.7750     1.2856 H       
  53 H53            8.7467    -1.7771     1.1700 H       
  54 H54            7.0708     4.4564    -0.6702 H       
  55 H55            9.6078     9.4087    -0.2891 H       
  56 H56           14.2696     7.1433     0.2084 H       
  57 H57           14.3398     6.6364     2.6143 H       
  58 H58           12.2538     6.4675     3.9076 H       
  59 H59           10.0843     6.8101     2.8015 H       
  60 H60           -2.4780     1.5139    -0.1407 H       
  61 H61           -1.5727     0.5907    -1.3640 H       
  62 H62           -1.9844    -0.1630     0.1951 H       
@<TRIPOS>BOND
   1    1    2 1
   2    1    6 2
   3    1   43 1
   4    2    3 am
   5    2   33 1
   6    3    4 1
   7    3   34 2
   8    4    5 ar
   9    4    7 ar
  10    5    6 1
  11    5   10 ar
  12    7    8 ar
  13    7   44 1
  14    8    9 ar
  15    8   11 1
  16    9   10 ar
  17    9   45 1
  18   10   46 1
  19   11   12 1
  20   11   47 1
  21   12   13 ar
  22   12   17 ar
  23   13   14 ar
  24   13   48 1
  25   14   15 ar
  26   14   19 1
  27   15   16 ar
  28   15   49 1
  29   16   17 ar
  30   16   50 1
  31   17   18 1
  32   18   51 1
  33   18   52 1
  34   18   53 1
  35   19   20 am
  36   19   54 1
  37   20   21 1
  38   20   22 2
  39   21   23 1
  40   21   26 2
  41   23   24 2
  42   24   25 1
  43   24   39 1
  44   25   26 1
  45   25   55 1
  46   26   27 1
  47   27   28 ar
  48   27   32 ar
  49   28   29 ar
  50   28   35 1
  51   29   30 ar
  52   29   56 1
  53   30   31 ar
  54   30   57 1
  55   31   32 ar
  56   31   58 1
  57   32   59 1
  58   33   60 1
  59   33   61 1
  60   33   62 1
  61   35   36 1
  62   35   37 1
  63   35   38 1
  64   39   40 1
  65   39   41 1
  66   39   42 1

#	End of record

