#	Name: ASD01813094
#	Creating user name:	WinNT
#	Creation time:	15. 06. 2019 19:29

#	Modifying user name:	WinNT
#	Modification time:	15. 06. 2019 19:29

#	Program:	/corina/corina34_cracker 3.40 0067  02.08.2006

@<TRIPOS>MOLECULE
ASD01813094
  53   56    0    0    0
SMALL
NO_CHARGES


@<TRIPOS>ATOM
   1 C1            -0.0169     1.3972     0.0097 C.2     
   2 C2             0.0021    -0.0041     0.0020 C.2     
   3 C3             1.1986    -0.6593    -0.0129 C.2     
   4 C4             2.3918     0.0821    -0.0204 C.2     
   5 N5             2.3438     1.4497    -0.0122 N.am    
   6 C6             1.1421     2.0936     0.0024 C.2     
   7 C7             3.6227    -0.5889    -0.0356 C.2     
   8 C8             4.7877     0.1218    -0.0430 C.2     
   9 C9             4.7345     1.5280    -0.0351 C.2     
  10 C10            3.4812     2.1736    -0.0189 C.2     
  11 O11            3.4258     3.3917    -0.0123 O.2     
  12 C12            5.9703     2.3140    -0.0422 C.2     
  13 O13            7.0487     1.7516    -0.0551 O.2     
  14 O14            5.9124     3.6618    -0.0346 O.3     
  15 C15            3.6593    -2.0954    -0.0434 C.3     
  16 N16            3.7785    -2.5752    -1.4268 N.3     
  17 C17            4.0545    -4.0170    -1.4618 C.3     
  18 C18            4.3159    -4.4528    -2.9053 C.3     
  19 C19            3.0887    -4.1282    -3.7615 C.3     
  20 C20            2.7938    -2.6285    -3.6691 C.3     
  21 C21            2.5766    -2.2456    -2.2034 C.3     
  22 C22            3.3626    -4.5002    -5.1959 C.ar    
  23 N23            4.6014    -4.7346    -5.5818 N.ar    
  24 C24            4.8909    -5.0631    -6.8254 C.ar    
  25 C25            3.8902    -5.1741    -7.7794 C.ar    
  26 C26            2.5714    -4.9336    -7.4065 C.ar    
  27 C27            2.3110    -4.5966    -6.0882 C.ar    
  28 O28            4.1935    -5.5126    -9.0603 O.3     
  29 C29            5.5713    -5.7425    -9.3617 C.3     
  30 C30            1.9292    -4.8888    -3.2676 C.1     
  31 N31            1.0344    -5.4758    -2.8864 N.1     
  32 H32           -0.9605     1.9226     0.0170 H       
  33 H33           -0.9233    -0.5609     0.0082 H       
  34 H34            1.2282    -1.7389    -0.0187 H       
  35 H35            1.1156     3.1733     0.0091 H       
  36 H36            5.7392    -0.3889    -0.0544 H       
  37 H37            6.7544     4.1373    -0.0398 H       
  38 H38            4.5154    -2.4410     0.5360 H       
  39 H39            2.7413    -2.4834     0.3979 H       
  40 H40            4.9319    -4.2337    -0.8524 H       
  41 H41            3.1958    -4.5608    -1.0681 H       
  42 H42            5.1829    -3.9195    -3.2951 H       
  43 H43            4.5054    -5.5259    -2.9329 H       
  44 H44            3.6369    -2.0665    -4.0709 H       
  45 H45            1.8958    -2.3982    -4.2424 H       
  46 H46            1.7248    -2.7977    -1.8062 H       
  47 H47            2.3805    -1.1757    -2.1328 H       
  48 H48            5.9179    -5.2473    -7.1042 H       
  49 H49            1.7700    -5.0120    -8.1262 H       
  50 H50            1.2994    -4.4031    -5.7634 H       
  51 H51            6.1443    -4.8388    -9.1540 H       
  52 H52            5.9464    -6.5600    -8.7460 H       
  53 H53            5.6742    -6.0039   -10.4148 H       
@<TRIPOS>BOND
   1    1    2 1
   2    1    6 2
   3    1   32 1
   4    2    3 2
   5    2   33 1
   6    3    4 1
   7    3   34 1
   8    4    5 1
   9    4    7 2
  10    5    6 1
  11    5   10 am
  12    6   35 1
  13    7    8 1
  14    7   15 1
  15    8    9 2
  16    8   36 1
  17    9   10 1
  18    9   12 1
  19   10   11 2
  20   12   13 2
  21   12   14 1
  22   14   37 1
  23   15   16 1
  24   15   38 1
  25   15   39 1
  26   16   17 1
  27   16   21 1
  28   17   18 1
  29   17   40 1
  30   17   41 1
  31   18   19 1
  32   18   42 1
  33   18   43 1
  34   19   20 1
  35   19   22 1
  36   19   30 1
  37   20   21 1
  38   20   44 1
  39   20   45 1
  40   21   46 1
  41   21   47 1
  42   22   23 ar
  43   22   27 ar
  44   23   24 ar
  45   24   25 ar
  46   24   48 1
  47   25   26 ar
  48   25   28 1
  49   26   27 ar
  50   26   49 1
  51   27   50 1
  52   28   29 1
  53   29   51 1
  54   29   52 1
  55   29   53 1
  56   30   31 3

#	End of record

