#	Name: ASD01208632
#	Creating user name:	WinNT
#	Creation time:	15. 06. 2019 19:10

#	Modifying user name:	WinNT
#	Modification time:	15. 06. 2019 19:10

#	Program:	/corina/corina34_cracker 3.40 0067  02.08.2006

@<TRIPOS>MOLECULE
ASD01208632
  12   12    0    0    0
SMALL
NO_CHARGES


@<TRIPOS>ATOM
   1 C1            -0.0168     1.3876     0.0097 C.ar    
   2 C2             0.0021    -0.0041     0.0020 C.ar    
   3 C3             1.2191    -0.6602    -0.0131 C.ar    
   4 C4             2.3826     0.1003    -0.0201 C.ar    
   5 C5             2.2898     1.4785    -0.0118 C.ar    
   6 N6             1.1138     2.0774     0.0026 N.ar    
   7 S7            -1.5590     2.2397     0.0216 S.3     
   8 Cl8            3.9363    -0.6739    -0.0385 Cl      
   9 H9            -0.9214    -0.5640     0.0082 H       
  10 H10            1.2647    -1.7392    -0.0190 H       
  11 H11            3.1910     2.0735    -0.0172 H       
  12 H12           -1.8177     2.3789     1.3341 H       
@<TRIPOS>BOND
   1    1    2 ar
   2    1    6 ar
   3    1    7 1
   4    2    3 ar
   5    2    9 1
   6    3    4 ar
   7    3   10 1
   8    4    5 ar
   9    4    8 1
  10    5    6 ar
  11    5   11 1
  12    7   12 1

#	End of record

