#	Name: ASD01916116
#	Creating user name:	WinNT
#	Creation time:	15. 06. 2019 20:06

#	Modifying user name:	WinNT
#	Modification time:	15. 06. 2019 20:06

#	Program:	/corina/corina34_cracker 3.40 0067  02.08.2006

@<TRIPOS>MOLECULE
ASD01916116
  45   47    0    0    0
SMALL
NO_CHARGES


@<TRIPOS>ATOM
   1 C1             0.0365     1.0965     0.0224 C.ar    
   2 C2            -0.0484    -0.3035    -0.0226 C.ar    
   3 C3            -1.3003    -0.8840    -0.0390 C.ar    
   4 C4            -2.4287    -0.0693    -0.0106 C.ar    
   5 N5            -3.6948    -0.6497    -0.0265 N.am    
   6 C6             1.3120     1.7472     0.0406 C.1     
   7 C7             2.3577     2.2806     0.0554 C.1     
   8 C8             3.6332     2.9313     0.0736 C.ar    
   9 C9             3.7094     4.3259     0.1184 C.ar    
  10 C10            4.9414     4.9456     0.1356 C.ar    
  11 N11           -2.3160     1.2494     0.0318 N.ar    
  12 C12           -1.1417     1.8457     0.0435 C.ar    
  13 C13            4.8078     2.1745     0.0522 C.ar    
  14 C14            6.1003     4.1898     0.1081 C.ar    
  15 N15           -4.8498     0.0585     0.1257 N.3     
  16 C16           -5.9636    -0.7743    -0.3845 C.3     
  17 C17           -5.4054    -2.2052    -0.1924 C.3     
  18 C18           -3.9062    -1.9676    -0.1994 C.2     
  19 C19            6.0327     2.8082     0.0698 C.ar    
  20 O20           -3.0499    -2.8164    -0.3302 O.2     
  21 C21           -7.2296    -0.5645     0.4486 C.3     
  22 C22           -6.2301    -0.4850    -1.8631 C.3     
  23 C23           -5.0643     0.4195     1.5334 C.3     
  24 C24           -3.9637     1.3806     1.9869 C.3     
  25 H25            0.8439    -0.9116    -0.0443 H       
  26 H26           -1.4034    -1.9585    -0.0739 H       
  27 H27            2.8057     4.9171     0.1393 H       
  28 H28            5.0018     6.0234     0.1703 H       
  29 H29           -1.0895     2.9238     0.0784 H       
  30 H30            4.7565     1.0962     0.0224 H       
  31 H31            7.0622     4.6806     0.1210 H       
  32 H32           -5.7313    -2.6242     0.7596 H       
  33 H33           -5.6971    -2.8500    -1.0215 H       
  34 H34            6.9413     2.2247     0.0534 H       
  35 H35           -7.5260     0.4833     0.4016 H       
  36 H36           -8.0321    -1.1872     0.0532 H       
  37 H37           -7.0326    -0.8402     1.4846 H       
  38 H38           -5.3342    -0.7051    -2.4436 H       
  39 H39           -7.0523    -1.1093    -2.2130 H       
  40 H40           -6.4937     0.5655    -1.9860 H       
  41 H41           -6.0355     0.9027     1.6406 H       
  42 H42           -5.0365    -0.4806     2.1476 H       
  43 H43           -3.0091     0.8549     2.0100 H       
  44 H44           -3.9014     2.2165     1.2900 H       
  45 H45           -4.1964     1.7552     2.9837 H       
@<TRIPOS>BOND
   1    1    2 ar
   2    1    6 1
   3    1   12 ar
   4    2    3 ar
   5    2   25 1
   6    3    4 ar
   7    3   26 1
   8    4   11 ar
   9    4    5 1
  10    5   15 1
  11    5   18 am
  12    6    7 3
  13    7    8 1
  14    8    9 ar
  15    8   13 ar
  16    9   10 ar
  17    9   27 1
  18   10   14 ar
  19   10   28 1
  20   11   12 ar
  21   12   29 1
  22   13   19 ar
  23   13   30 1
  24   14   19 ar
  25   14   31 1
  26   15   16 1
  27   15   23 1
  28   16   17 1
  29   16   22 1
  30   16   21 1
  31   17   18 1
  32   17   32 1
  33   17   33 1
  34   18   20 2
  35   19   34 1
  36   21   35 1
  37   21   36 1
  38   21   37 1
  39   22   38 1
  40   22   39 1
  41   22   40 1
  42   23   24 1
  43   23   41 1
  44   23   42 1
  45   24   43 1
  46   24   44 1
  47   24   45 1

#	End of record

