#	Name: ASD01140528
#	Creating user name:	WinNT
#	Creation time:	15. 06. 2019 19:01

#	Modifying user name:	WinNT
#	Modification time:	15. 06. 2019 19:01

#	Program:	/corina/corina34_cracker 3.40 0067  02.08.2006

@<TRIPOS>MOLECULE
ASD01140528
  60   63    0    0    0
SMALL
NO_CHARGES


@<TRIPOS>ATOM
   1 C1            -0.2995     1.4961    -0.3535 C.3     
   2 C2            -0.2200    -0.0308    -0.2944 C.3     
   3 C3             0.4367    -0.4567     1.0201 C.3     
   4 C4             1.8464     0.1324     1.1014 C.3     
   5 C5             1.7660     1.6595     1.0414 C.3     
   6 C6             1.1125     2.0819    -0.2770 C.3     
   7 C7             1.9455     1.5542    -1.4459 C.3     
   8 C8             3.1773     2.2458     1.1202 C.3     
   9 C9             4.0121     1.7255    -0.0518 C.3     
  10 C10            3.3603     2.1486    -1.3689 C.3     
  11 C11            2.1226     1.4575    -3.9674 C.3     
  12 C12            1.2655     1.8954    -2.7675 C.3     
  13 C13            3.4687     2.1424    -3.8344 C.3     
  14 C14            4.4961     1.8428    -4.9210 C.3     
  15 C15            4.1429     1.5974    -2.5462 C.3     
  16 C16            5.5751     2.1198    -2.7010 C.3     
  17 C17            5.8704     1.8825    -4.2073 C.3     
  18 C18            1.0373     3.6085    -0.3446 C.3     
  19 C19            3.2698     3.6546    -3.7139 C.3     
  20 C20            4.4371     2.8938    -5.9994 C.2     
  21 C21            3.4676     2.7458    -7.1436 C.3     
  22 O22            5.1668     3.8545    -5.9467 O.2     
  23 C23           -0.3980     0.0542     2.1961 C.3     
  24 O24            0.5127    -1.8827     1.0742 O.3     
  25 H25            3.3063     3.2360    -1.4203 H       
  26 H26            1.1698     2.0259     1.8771 H       
  27 H27            2.0144     0.4692    -1.3675 H       
  28 H28            4.1233     0.5076    -2.5375 H       
  29 H29           -0.7689     1.7998    -1.2892 H       
  30 H30           -0.8909     1.8622     0.4858 H       
  31 H31           -1.2249    -0.4493    -0.3508 H       
  32 H32            0.3735    -0.3964    -1.1323 H       
  33 H33            2.3130    -0.1702     2.0389 H       
  34 H34            2.4417    -0.2332     0.2648 H       
  35 H35            3.1222     3.3333     1.0725 H       
  36 H36            3.6431     1.9465     2.0592 H       
  37 H37            5.0181     2.1412     0.0058 H       
  38 H38            4.0652     0.6378    -0.0056 H       
  39 H39            2.2541     0.3755    -3.9538 H       
  40 H40            1.6420     1.7619    -4.8971 H       
  41 H41            0.3015     1.3890    -2.8140 H       
  42 H42            1.1044     2.9722    -2.8183 H       
  43 H43            4.3194     0.8546    -5.3457 H       
  44 H44            5.6264     3.1817    -2.4605 H       
  45 H45            6.2635     1.5485    -2.0783 H       
  46 H46            6.3894     0.9335    -4.3418 H       
  47 H47            6.4742     2.6990    -4.6033 H       
  48 H48            0.4445     3.9805     0.4910 H       
  49 H49            2.0433     4.0246    -0.2901 H       
  50 H50            0.5706     3.9081    -1.2830 H       
  51 H51            2.6210     3.8692    -2.8647 H       
  52 H52            4.2356     4.1373    -3.5644 H       
  53 H53            2.8111     4.0346    -4.6268 H       
  54 H54            2.8985     1.8243    -7.0208 H       
  55 H55            2.7851     3.5957    -7.1538 H       
  56 H56            4.0179     2.7105    -8.0838 H       
  57 H57           -1.4021    -0.3661     2.1387 H       
  58 H58            0.0698    -0.2493     3.1327 H       
  59 H59           -0.4565     1.1418     2.1548 H       
  60 H60           -0.3463    -2.3244     1.0281 H       
@<TRIPOS>BOND
   1    1    2 1
   2    1    6 1
   3    1   29 1
   4    1   30 1
   5    2    3 1
   6    2   31 1
   7    2   32 1
   8    3    4 1
   9    3   23 1
  10    3   24 1
  11    4    5 1
  12    4   33 1
  13    4   34 1
  14    5    6 1
  15    5    8 1
  16    5   26 1
  17    6    7 1
  18    6   18 1
  19    7   10 1
  20    7   27 1
  21    7   12 1
  22    8    9 1
  23    8   35 1
  24    8   36 1
  25    9   10 1
  26    9   37 1
  27    9   38 1
  28   10   15 1
  29   10   25 1
  30   11   12 1
  31   11   13 1
  32   11   39 1
  33   11   40 1
  34   12   41 1
  35   12   42 1
  36   13   15 1
  37   13   19 1
  38   13   14 1
  39   14   17 1
  40   14   20 1
  41   14   43 1
  42   15   16 1
  43   15   28 1
  44   16   17 1
  45   16   44 1
  46   16   45 1
  47   17   46 1
  48   17   47 1
  49   18   48 1
  50   18   49 1
  51   18   50 1
  52   19   51 1
  53   19   52 1
  54   19   53 1
  55   20   21 1
  56   20   22 2
  57   21   54 1
  58   21   55 1
  59   21   56 1
  60   23   57 1
  61   23   58 1
  62   23   59 1
  63   24   60 1

#	End of record

