#	Name: ASD01810421
#	Creating user name:	WinNT
#	Creation time:	15. 06. 2019 19:24

#	Modifying user name:	WinNT
#	Modification time:	15. 06. 2019 19:24

#	Program:	/corina/corina34_cracker 3.40 0067  02.08.2006

@<TRIPOS>MOLECULE
ASD01810421
  44   47    0    0    0
SMALL
NO_CHARGES


@<TRIPOS>ATOM
   1 C1             0.1047     1.4771     0.3929 C.ar    
   2 C2             0.0857     0.0903     0.3847 C.ar    
   3 C3             2.4704     0.0375     0.1039 C.ar    
   4 C4             2.4862     1.4423     0.1125 C.ar    
   5 C5             1.2963     2.1572     0.2578 C.ar    
   6 N6             3.6450    -0.6704    -0.0400 N.pl3   
   7 C7             4.8374    -0.0771    -0.1762 C.2     
   8 C8             4.9792     1.2961    -0.1827 C.2     
   9 C9             3.7792     2.1355    -0.0343 C.2     
  10 O10            3.8512     3.3519    -0.0341 O.2     
  11 C11            6.3060     1.9095    -0.3342 C.2     
  12 C12            3.5856    -2.1342    -0.0434 C.3     
  13 C13            3.4407    -2.6277    -1.4599 C.ar    
  14 O14            7.2904     1.2065    -0.4552 O.2     
  15 O15            6.4315     3.2517    -0.3390 O.3     
  16 C16            4.5614    -2.7701    -2.2580 C.ar    
  17 C17            4.4346    -3.2217    -3.5560 C.ar    
  18 C18            3.1746    -3.5344    -4.0621 C.ar    
  19 C19            2.0490    -3.3891    -3.2537 C.ar    
  20 C20            2.1881    -2.9421    -1.9554 C.ar    
  21 C21            3.0319    -4.0199    -5.4571 C.ar    
  22 C22            1.7719    -4.3326    -5.9631 C.ar    
  23 C23            1.6449    -4.7838    -7.2613 C.ar    
  24 C24            2.7657    -4.9263    -8.0594 C.ar    
  25 C25            4.0189    -4.6177    -7.5620 C.ar    
  26 C26            4.1567    -4.1594    -6.2674 C.ar    
  27 C27            1.2540    -0.6297     0.2419 C.ar    
  28 F28            1.2193    -1.9802     0.2363 F       
  29 Br29           1.3183     4.0481     0.2687 Br      
  30 H30           -0.8187     2.0267     0.5010 H       
  31 H31           -0.8538    -0.4317     0.4916 H       
  32 H32            5.7178    -0.6933    -0.2843 H       
  33 H33            4.5017    -2.5360     0.3894 H       
  34 H34            2.7301    -2.4645     0.5457 H       
  35 H35            7.3243     3.6088    -0.4414 H       
  36 H36            5.5375    -2.5271    -1.8648 H       
  37 H37            5.3102    -3.3322    -4.1784 H       
  38 H38            1.0700    -3.6301    -3.6410 H       
  39 H39            1.3164    -2.8291    -1.3279 H       
  40 H40            0.8962    -4.2224    -5.3406 H       
  41 H41            0.6688    -5.0265    -7.6546 H       
  42 H42            2.6619    -5.2800    -9.0745 H       
  43 H43            4.8907    -4.7311    -8.1893 H       
  44 H44            5.1357    -3.9184    -5.8801 H       
@<TRIPOS>BOND
   1    1    2 ar
   2    1    5 ar
   3    1   30 1
   4    2   27 ar
   5    2   31 1
   6    3    4 ar
   7    3    6 1
   8    3   27 ar
   9    4    5 ar
  10    4    9 1
  11    5   29 1
  12    6    7 1
  13    6   12 1
  14    7    8 2
  15    7   32 1
  16    8    9 1
  17    8   11 1
  18    9   10 2
  19   11   14 2
  20   11   15 1
  21   12   13 1
  22   12   33 1
  23   12   34 1
  24   13   16 ar
  25   13   20 ar
  26   15   35 1
  27   16   17 ar
  28   16   36 1
  29   17   18 ar
  30   17   37 1
  31   18   19 ar
  32   18   21 1
  33   19   20 ar
  34   19   38 1
  35   20   39 1
  36   21   22 ar
  37   21   26 ar
  38   22   23 ar
  39   22   40 1
  40   23   24 ar
  41   23   41 1
  42   24   25 ar
  43   24   42 1
  44   25   26 ar
  45   25   43 1
  46   26   44 1
  47   27   28 1

#	End of record

