#	Name: ASD03090973
#	Creating user name:	WinNT
#	Creation time:	15. 06. 2019 20:29

#	Modifying user name:	WinNT
#	Modification time:	15. 06. 2019 20:29

#	Program:	/corina/corina34_cracker 3.40 0067  02.08.2006

@<TRIPOS>MOLECULE
ASD03090973
  49   52    0    0    0
SMALL
NO_CHARGES


@<TRIPOS>ATOM
   1 N1            -0.0170     1.2495     0.0903 N.am    
   2 C2             0.0064    -0.0977     0.0615 C.2     
   3 O3            -1.0379    -0.7260     0.0834 O.2     
   4 N4             1.1742    -0.7446     0.0090 N.2     
   5 S5            -0.1572    -3.1383     0.0031 S.3     
   6 C6             1.1973    -2.0751    -0.0195 C.2     
   7 N7             2.2930    -2.8739    -0.0728 N.pl3   
   8 C8             2.0752    -4.2178    -0.0939 C.2     
   9 C9             0.8119    -4.6205    -0.0603 C.2     
  10 O10            7.4023    -0.7444    -0.2103 O.3     
  11 C11            8.4747    -1.5792     0.2401 C.3     
  12 C12            8.3044    -2.9652    -0.3966 C.3     
  13 O13            7.0394    -3.4947     0.0147 O.3     
  14 C14            5.9705    -2.6555    -0.0622 C.ar    
  15 C15            6.1513    -1.2813    -0.1726 C.ar    
  16 C16            4.6893    -3.1831    -0.0301 C.ar    
  17 C17            3.5891    -2.3401    -0.1051 C.ar    
  18 C18            3.7726    -0.9685    -0.2125 C.ar    
  19 C19            5.0496    -0.4421    -0.2461 C.ar    
  20 F20            8.3377    -2.8514    -1.7905 F       
  21 F21            9.3323    -3.8113     0.0332 F       
  22 F22            9.6990    -1.0271    -0.1518 F       
  23 F23            8.4316    -1.6917     1.6339 F       
  24 C24            0.3067    -6.0402    -0.0739 C.3     
  25 C25            1.2381     2.0046     0.0640 C.3     
  26 C26           -1.2977     1.9590     0.1418 C.3     
  27 C27           -1.7549     2.0669     1.5737 C.ar    
  28 C28           -2.9978     2.6013     1.8645 C.ar    
  29 C29           -3.4173     2.7003     3.1788 C.ar    
  30 C30           -2.5939     2.2650     4.2018 C.ar    
  31 C31           -1.3517     1.7309     3.9098 C.ar    
  32 C32           -0.9352     1.6270     2.5957 C.ar    
  33 Cl33          -3.1194     2.3893     5.8517 Cl      
  34 Cl34          -4.0300     3.1478     0.5802 Cl      
  35 H35            2.8925    -4.9226    -0.1359 H       
  36 H36            4.5469    -4.2503     0.0542 H       
  37 H37            2.9168    -0.3123    -0.2698 H       
  38 H38            5.1902     0.6255    -0.3294 H       
  39 H39           -0.7827    -6.0386    -0.0384 H       
  40 H40            0.6398    -6.5357    -0.9859 H       
  41 H41            0.6977    -6.5733     0.7927 H       
  42 H42            1.5620     2.1353    -0.9686 H       
  43 H43            1.0843     2.9813     0.5229 H       
  44 H44            2.0020     1.4591     0.6180 H       
  45 H45           -1.1768     2.9579    -0.2773 H       
  46 H46           -2.0408     1.4098    -0.4365 H       
  47 H47           -4.3871     3.1176     3.4063 H       
  48 H48           -0.7087     1.3914     4.7083 H       
  49 H49            0.0327     1.2056     2.3679 H       
@<TRIPOS>BOND
   1    1    2 am
   2    1   25 1
   3    1   26 1
   4    2    3 2
   5    2    4 1
   6    4    6 2
   7    5    6 1
   8    5    9 1
   9    6    7 1
  10    7    8 1
  11    7   17 1
  12    8    9 2
  13    8   35 1
  14    9   24 1
  15   10   11 1
  16   10   15 1
  17   11   12 1
  18   11   22 1
  19   11   23 1
  20   12   13 1
  21   12   20 1
  22   12   21 1
  23   13   14 1
  24   14   15 ar
  25   14   16 ar
  26   15   19 ar
  27   16   17 ar
  28   16   36 1
  29   17   18 ar
  30   18   19 ar
  31   18   37 1
  32   19   38 1
  33   24   39 1
  34   24   40 1
  35   24   41 1
  36   25   42 1
  37   25   43 1
  38   25   44 1
  39   26   27 1
  40   26   45 1
  41   26   46 1
  42   27   28 ar
  43   27   32 ar
  44   28   29 ar
  45   28   34 1
  46   29   30 ar
  47   29   47 1
  48   30   31 ar
  49   30   33 1
  50   31   32 ar
  51   31   48 1
  52   32   49 1

#	End of record

