#	Name: ASD01812464
#	Creating user name:	WinNT
#	Creation time:	15. 06. 2019 19:28

#	Modifying user name:	WinNT
#	Modification time:	15. 06. 2019 19:28

#	Program:	/corina/corina34_cracker 3.40 0067  02.08.2006

@<TRIPOS>MOLECULE
ASD01812464
  56   59    0    0    0
SMALL
NO_CHARGES


@<TRIPOS>ATOM
   1 C1            -0.0214     1.4765     0.0490 C.ar    
   2 C2            -0.0901     0.1530     0.4401 C.ar    
   3 C3             1.0705    -0.5772     0.6175 C.ar    
   4 C4             2.3000     0.0130     0.4024 C.ar    
   5 C5             2.3785     1.3448     0.0072 C.ar    
   6 C6             1.2106     2.0775    -0.1673 C.ar    
   7 N7             3.6413     1.9063    -0.2067 N.3     
   8 C8             3.6106     3.3725    -0.1532 C.3     
   9 C9             2.4840     3.8724    -1.0667 C.3     
  10 O10            1.2440     3.3858    -0.5426 O.3     
  11 C11            4.6253     1.3654     0.7405 C.3     
  12 C12            5.9922     1.9058     0.4082 C.ar    
  13 C13            6.7603     1.2926    -0.5639 C.ar    
  14 C14            6.4758     3.0181     1.0714 C.ar    
  15 C15            7.7297     3.5137     0.7666 C.ar    
  16 C16            8.5002     2.8968    -0.2012 C.ar    
  17 C17            8.0142     1.7883    -0.8688 C.ar    
  18 N18            3.5028     6.0537    -1.6347 N.am    
  19 C19            2.4734     5.3793    -1.0852 C.2     
  20 O20            1.5385     5.9850    -0.6057 O.2     
  21 C21            9.8670     3.4375    -0.5338 C.3     
  22 C22            3.4925     7.5185    -1.6527 C.3     
  23 C23            4.3646     8.0206    -2.8052 C.3     
  24 C24            4.3539     9.5504    -2.8239 C.3     
  25 C25            4.9051    10.0806    -1.4988 C.3     
  26 C26            4.0330     9.5786    -0.3463 C.3     
  27 C27            4.0438     8.0487    -0.3275 C.3     
  28 O28            3.8498     7.5254    -4.0428 O.3     
  29 F29           10.8225     2.8252     0.2842 F       
  30 F30           10.1608     3.1694    -1.8751 F       
  31 F31            9.8865     4.8198    -0.3194 F       
  32 H32           -0.9294     2.0436    -0.0932 H       
  33 H33           -1.0508    -0.3112     0.6077 H       
  34 H34            1.0152    -1.6109     0.9253 H       
  35 H35            3.2041    -0.5611     0.5417 H       
  36 H36            3.4233     3.6975     0.8702 H       
  37 H37            4.5649     3.7713    -0.4975 H       
  38 H38            2.6315     3.4923    -2.0776 H       
  39 H39            4.3543     1.6608     1.7541 H       
  40 H40            4.6376     0.2777     0.6701 H       
  41 H41            6.3808     0.4260    -1.0850 H       
  42 H42            5.8737     3.5000     1.8275 H       
  43 H43            8.1072     4.3831     1.2843 H       
  44 H44            8.6144     1.3090    -1.6280 H       
  45 H45            4.2505     5.5692    -2.0182 H       
  46 H46            2.4708     7.8731    -1.7890 H       
  47 H47            5.3863     7.6660    -2.6688 H       
  48 H48            4.9752     9.9081    -3.6450 H       
  49 H49            3.3322     9.9049    -2.9603 H       
  50 H50            5.9268     9.7261    -1.3625 H       
  51 H51            4.8975    11.1705    -1.5122 H       
  52 H52            4.4257     9.9563     0.5977 H       
  53 H53            3.0113     9.9331    -0.4827 H       
  54 H54            3.4225     7.6911     0.4935 H       
  55 H55            5.0654     7.6942    -0.1912 H       
  56 H56            4.3547     7.8048    -4.8188 H       
@<TRIPOS>BOND
   1    1    2 ar
   2    1    6 ar
   3    1   32 1
   4    2    3 ar
   5    2   33 1
   6    3    4 ar
   7    3   34 1
   8    4    5 ar
   9    4   35 1
  10    5    7 1
  11    5    6 ar
  12    6   10 1
  13    7   11 1
  14    7    8 1
  15    8    9 1
  16    8   36 1
  17    8   37 1
  18    9   10 1
  19    9   19 1
  20    9   38 1
  21   11   12 1
  22   11   39 1
  23   11   40 1
  24   12   14 ar
  25   12   13 ar
  26   13   17 ar
  27   13   41 1
  28   14   15 ar
  29   14   42 1
  30   15   16 ar
  31   15   43 1
  32   16   17 ar
  33   16   21 1
  34   17   44 1
  35   18   19 am
  36   18   22 1
  37   18   45 1
  38   19   20 2
  39   21   29 1
  40   21   30 1
  41   21   31 1
  42   22   23 1
  43   22   27 1
  44   22   46 1
  45   23   24 1
  46   23   28 1
  47   23   47 1
  48   24   25 1
  49   24   48 1
  50   24   49 1
  51   25   26 1
  52   25   50 1
  53   25   51 1
  54   26   27 1
  55   26   52 1
  56   26   53 1
  57   27   54 1
  58   27   55 1
  59   28   56 1

#	End of record

