#	Name: ASD05503003
#	Creating user name:	WinNT
#	Creation time:	15. 06. 2019 21:01

#	Modifying user name:	WinNT
#	Modification time:	15. 06. 2019 21:01

#	Program:	/corina/corina34_cracker 3.40 0067  02.08.2006

@<TRIPOS>MOLECULE
ASD05503003
  39   40    0    0    0
SMALL
NO_CHARGES


@<TRIPOS>ATOM
   1 C1            -0.1504     1.3617     0.4407 C.ar    
   2 C2            -0.0932    -0.0174     0.2841 C.ar    
   3 C3             1.1368    -0.6546     0.2033 C.ar    
   4 C4             2.3060     0.0885     0.2793 C.ar    
   5 C5             2.2419     1.4677     0.4359 C.ar    
   6 C6             1.0159     2.0989     0.5161 C.ar    
   7 N7            -1.2747    -0.7632     0.2084 N.am    
   8 C8            -1.3350    -1.8514    -0.5844 C.2     
   9 C9            -2.5642    -2.7233    -0.5751 C.3     
  10 O10           -0.4000    -2.1291    -1.3053 O.2     
  11 C11           -2.3754    -3.8815    -1.5569 C.3     
  12 C12           -3.6233    -4.7666    -1.5474 C.3     
  13 N13            3.5476    -0.5500     0.1987 N.am    
  14 C14            4.5808     0.0606    -0.4147 C.2     
  15 C15            5.8619    -0.6537    -0.5911 C.ar    
  16 O16            4.4585     1.1992    -0.8229 O.2     
  17 C17            6.0059    -1.9612    -0.1236 C.ar    
  18 C18            7.2047    -2.6225    -0.2914 C.ar    
  19 C19            8.2641    -1.9935    -0.9215 C.ar    
  20 C20            8.1299    -0.6980    -1.3872 C.ar    
  21 C21            6.9334    -0.0258    -1.2317 C.ar    
  22 Cl22           6.7659     1.5999    -1.8171 Cl      
  23 H23           -1.1075     1.8587     0.4992 H       
  24 H24            1.1838    -1.7267     0.0819 H       
  25 H25            3.1516     2.0468     0.4951 H       
  26 H26            0.9687     3.1710     0.6379 H       
  27 H27           -2.0504    -0.4970     0.7265 H       
  28 H28           -2.7211    -3.1194     0.4282 H       
  29 H29           -3.4308    -2.1327    -0.8721 H       
  30 H30           -2.2185    -3.4854    -2.5601 H       
  31 H31           -1.5088    -4.4720    -1.2598 H       
  32 H32           -4.4899    -4.1761    -1.8445 H       
  33 H33           -3.4888    -5.5917    -2.2468 H       
  34 H34           -3.7802    -5.1627    -0.5441 H       
  35 H35            3.6653    -1.4322     0.5843 H       
  36 H36            5.1805    -2.4539     0.3688 H       
  37 H37            7.3171    -3.6339     0.0703 H       
  38 H38            9.2002    -2.5164    -1.0499 H       
  39 H39            8.9608    -0.2129    -1.8777 H       
@<TRIPOS>BOND
   1    1    2 ar
   2    1    6 ar
   3    1   23 1
   4    2    3 ar
   5    2    7 1
   6    3    4 ar
   7    3   24 1
   8    4    5 ar
   9    4   13 1
  10    5    6 ar
  11    5   25 1
  12    6   26 1
  13    7    8 am
  14    7   27 1
  15    8    9 1
  16    8   10 2
  17    9   11 1
  18    9   28 1
  19    9   29 1
  20   11   12 1
  21   11   30 1
  22   11   31 1
  23   12   32 1
  24   12   33 1
  25   12   34 1
  26   13   14 am
  27   13   35 1
  28   14   15 1
  29   14   16 2
  30   15   17 ar
  31   15   21 ar
  32   17   18 ar
  33   17   36 1
  34   18   19 ar
  35   18   37 1
  36   19   20 ar
  37   19   38 1
  38   20   21 ar
  39   20   39 1
  40   21   22 1

#	End of record

