#	Name: ASD03092182
#	Creating user name:	WinNT
#	Creation time:	15. 06. 2019 20:32

#	Modifying user name:	WinNT
#	Modification time:	15. 06. 2019 20:32

#	Program:	/corina/corina34_cracker 3.40 0067  02.08.2006

@<TRIPOS>MOLECULE
ASD03092182
  49   52    0    0    0
SMALL
NO_CHARGES


@<TRIPOS>ATOM
   1 N1            -0.0867     1.3051     1.2317 N.pl3   
   2 C2             0.0100    -0.0331     0.9889 C.2     
   3 C3            -1.2147    -0.4610     0.5616 C.2     
   4 C4            -2.0731     0.6456     0.5455 C.2     
   5 N5            -1.4011     1.6985     0.9505 N.2     
   6 C6             1.2194    -0.8681     1.1570 C.ar    
   7 C7             1.9083    -0.8992     2.3746 C.ar    
   8 C8             3.0312    -1.6923     2.4876 C.ar    
   9 N9             3.4567    -2.4135     1.4680 N.ar    
  10 C10            2.8369    -2.4130     0.3029 C.ar    
  11 C11            1.7031    -1.6536     0.1042 C.ar    
  12 C12            0.9912     2.1754     1.7081 C.3     
  13 N13           -3.4209     0.6305     0.1667 N.pl3   
  14 C14           -4.1379     1.8294     0.0844 C.ar    
  15 C15           -3.4848     3.0074    -0.2527 C.ar    
  16 C16           -4.1921     4.1921    -0.3349 C.ar    
  17 C17           -5.5535     4.2080    -0.0809 C.ar    
  18 C18           -6.2118     3.0277     0.2576 C.ar    
  19 C19           -5.5040     1.8402     0.3342 C.ar    
  20 O20           -7.5332     3.3067     0.4564 O.3     
  21 O21           -6.4641     5.2265    -0.0941 O.3     
  22 C22           -7.7531     4.5885    -0.1615 C.3     
  23 F23           -8.1543     4.4302    -1.4923 F       
  24 F24           -8.7033     5.3233     0.5557 F       
  25 C25            1.7916     2.6734     0.5323 C.2     
  26 N26            2.8411     3.4952     0.7311 N.am    
  27 C27            1.0022    -1.6602    -1.2298 C.3     
  28 C28            3.6192     3.9792    -0.4119 C.3     
  29 C29            4.7448     4.8882     0.0856 C.3     
  30 O30            1.4912     2.3345    -0.5928 O.2     
  31 H31           -1.4746    -1.4720     0.2849 H       
  32 H32            1.5661    -0.3109     3.2131 H       
  33 H33            3.5697    -1.7230     3.4233 H       
  34 H34            3.2204    -3.0189    -0.5047 H       
  35 H35            0.5637     3.0240     2.2421 H       
  36 H36            1.6417     1.6143     2.3789 H       
  37 H37           -3.8576    -0.2109    -0.0386 H       
  38 H38           -2.4231     2.9980    -0.4505 H       
  39 H39           -3.6820     5.1072    -0.5973 H       
  40 H40           -6.0126     0.9241     0.5960 H       
  41 H41            3.0813     3.7662     1.6310 H       
  42 H42            0.1892    -2.3860    -1.2095 H       
  43 H43            0.5987    -0.6682    -1.4331 H       
  44 H44            1.7117    -1.9311    -2.0117 H       
  45 H45            4.0467     3.1306    -0.9460 H       
  46 H46            2.9687     4.5404    -1.0828 H       
  47 H47            4.3173     5.7369     0.6197 H       
  48 H48            5.3953     4.3271     0.7565 H       
  49 H49            5.3238     5.2484    -0.7648 H       
@<TRIPOS>BOND
   1    1    2 1
   2    1   12 1
   3    1    5 1
   4    2    3 2
   5    2    6 1
   6    3    4 1
   7    3   31 1
   8    4    5 2
   9    4   13 1
  10    6    7 ar
  11    6   11 ar
  12    7    8 ar
  13    7   32 1
  14    8    9 ar
  15    8   33 1
  16    9   10 ar
  17   10   11 ar
  18   10   34 1
  19   11   27 1
  20   12   25 1
  21   12   35 1
  22   12   36 1
  23   13   14 1
  24   13   37 1
  25   14   15 ar
  26   14   19 ar
  27   15   16 ar
  28   15   38 1
  29   16   17 ar
  30   16   39 1
  31   17   18 ar
  32   17   21 1
  33   18   19 ar
  34   18   20 1
  35   19   40 1
  36   20   22 1
  37   21   22 1
  38   22   23 1
  39   22   24 1
  40   25   26 am
  41   25   30 2
  42   26   28 1
  43   26   41 1
  44   27   42 1
  45   27   43 1
  46   27   44 1
  47   28   29 1
  48   28   45 1
  49   28   46 1
  50   29   47 1
  51   29   48 1
  52   29   49 1

#	End of record

