#	Name: ASD01885678
#	Creating user name:	WinNT
#	Creation time:	15. 06. 2019 19:50

#	Modifying user name:	WinNT
#	Modification time:	15. 06. 2019 19:50

#	Program:	/corina/corina34_cracker 3.40 0067  02.08.2006

@<TRIPOS>MOLECULE
ASD01885678
  52   55    0    0    0
SMALL
NO_CHARGES


@<TRIPOS>ATOM
   1 C1             2.8777     1.2999    -2.0156 C.ar    
   2 C2             2.1795     2.4299    -2.5121 C.ar    
   3 C3             2.9160     3.4975    -3.0850 C.ar    
   4 C4             4.2985     3.3815    -3.1316 C.ar    
   5 C5             4.9115     2.2323    -2.6195 C.ar    
   6 N6             4.2076     1.2471    -2.0951 N.ar    
   7 C7             2.1449     0.2406    -1.4469 C.ar    
   8 C8             0.7883     0.3188    -1.3781 C.ar    
   9 C9             0.1072     1.4335    -1.8625 C.ar    
  10 C10            0.7819     2.4731    -2.4296 C.ar    
  11 C11            2.2320     4.6980    -3.6173 C.ar    
  12 C12            2.6563     5.9716    -3.2371 C.ar    
  13 C13            2.0159     7.0866    -3.7356 C.ar    
  14 C14            1.1648     4.5595    -4.5052 C.ar    
  15 C15            6.3884     2.1134    -2.6791 C.2     
  16 N16            6.9953     1.0091    -2.2011 N.am    
  17 O17            7.0513     3.0115    -3.1588 O.2     
  18 C18            0.0109    -0.8130    -0.7570 C.3     
  19 N19           -0.5226    -1.6765    -1.8133 N.pl3   
  20 C20            0.0030    -2.8417    -2.2350 C.2     
  21 N21           -0.7804    -3.2848    -3.1878 N.2     
  22 N22           -1.7373    -2.4361    -3.3432 N.2     
  23 N23           -1.5876    -1.4659    -2.5104 N.2     
  24 C24            0.9525     6.9436    -4.6129 C.ar    
  25 C25            0.5309     5.6808    -4.9981 C.ar    
  26 F26            0.3281     8.0390    -5.0982 F       
  27 C27            1.2505    -3.5071    -1.7136 C.3     
  28 C28            1.7511    -4.5268    -2.7385 C.3     
  29 O29            2.2597    -2.5199    -1.4918 O.3     
  30 C30            3.0669    -5.1364    -2.2506 C.3     
  31 C31            0.9361    -4.2197    -0.3967 C.3     
  32 F32            0.0503    -5.2754    -0.6378 F       
  33 F33            2.1193    -4.7209     0.1565 F       
  34 F34            0.3510    -3.3146     0.4952 F       
  35 H35            4.8966     4.1721    -3.5602 H       
  36 H36            2.6576    -0.6307    -1.0671 H       
  37 H37           -0.9695     1.4742    -1.7880 H       
  38 H38            0.2424     3.3300    -2.8050 H       
  39 H39            3.4846     6.0840    -2.5532 H       
  40 H40            2.3433     8.0729    -3.4415 H       
  41 H41            0.8358     3.5759    -4.8063 H       
  42 H42            6.4661     0.2921    -1.8181 H       
  43 H43            7.9614     0.9313    -2.2401 H       
  44 H44            0.6688    -1.3938    -0.1105 H       
  45 H45           -0.8123    -0.4082    -0.1682 H       
  46 H46           -0.2980     5.5745    -5.6823 H       
  47 H47            1.0082    -5.3152    -2.8593 H       
  48 H48            1.9133    -4.0307    -3.6953 H       
  49 H49            2.5095    -2.0276    -2.2856 H       
  50 H50            3.7507    -4.3391    -1.9591 H       
  51 H51            2.8730    -5.7805    -1.3929 H       
  52 H52            3.5145    -5.7238    -3.0523 H       
@<TRIPOS>BOND
   1    1    7 ar
   2    1    6 ar
   3    1    2 ar
   4    2    3 ar
   5    2   10 ar
   6    3   11 1
   7    3    4 ar
   8    4    5 ar
   9    4   35 1
  10    5   15 1
  11    5    6 ar
  12    7    8 ar
  13    7   36 1
  14    8    9 ar
  15    8   18 1
  16    9   10 ar
  17    9   37 1
  18   10   38 1
  19   11   12 ar
  20   11   14 ar
  21   12   13 ar
  22   12   39 1
  23   13   24 ar
  24   13   40 1
  25   14   25 ar
  26   14   41 1
  27   15   16 am
  28   15   17 2
  29   16   42 1
  30   16   43 1
  31   18   19 1
  32   18   44 1
  33   18   45 1
  34   19   20 1
  35   19   23 1
  36   20   21 2
  37   20   27 1
  38   21   22 1
  39   22   23 2
  40   24   25 ar
  41   24   26 1
  42   25   46 1
  43   27   31 1
  44   27   28 1
  45   27   29 1
  46   28   30 1
  47   28   47 1
  48   28   48 1
  49   29   49 1
  50   30   50 1
  51   30   51 1
  52   30   52 1
  53   31   32 1
  54   31   33 1
  55   31   34 1

#	End of record

