#	Name: ASD00100079
#	Creating user name:	WinNT
#	Creation time:	15. 06. 2019 18:30

#	Modifying user name:	WinNT
#	Modification time:	15. 06. 2019 18:30

#	Program:	/corina/corina34_cracker 3.40 0067  02.08.2006

@<TRIPOS>MOLECULE
ASD00100079
  80   86    0    0    0
SMALL
NO_CHARGES


@<TRIPOS>ATOM
   1 C1            -0.0187     1.5258     0.0104 C.3     
   2 C2             0.0021    -0.0041     0.0020 C.3     
   3 C3             0.7182    -0.4975    -1.2568 C.3     
   4 C4            -0.0218     0.0093    -2.4963 C.3     
   5 C5            -0.0425     1.5392    -2.4879 C.3     
   6 C6             1.3929     2.0688    -2.4988 C.3     
   7 C7             2.1328     1.5619    -1.2592 C.3     
   8 C8             1.4167     2.0553    -0.0004 C.3     
   9 C9             2.1536     0.0321    -1.2676 C.3     
  10 C10           -0.7587     2.0326    -1.2291 C.3     
  11 C11           -0.7240     2.0118     1.2503 C.2     
  12 O12           -1.1666     1.2132     2.0486 O.2     
  13 N13           -0.8631     3.3339     1.4720 N.am    
  14 C14           -1.5488     3.8063     2.6774 C.3     
  15 C15           -1.0592     5.2138     3.0241 C.3     
  16 C16           -1.7753     5.7072     4.2829 C.3     
  17 C17           -3.2842     5.7396     4.0317 C.3     
  18 C18           -3.7738     4.3321     3.6849 C.3     
  19 C19           -3.0577     3.8387     2.4261 C.3     
  20 C20           -4.0004     6.2330     5.2905 C.3     
  21 C21           -5.4950     6.3844     5.0007 C.3     
  22 N22           -6.1826     6.8581     6.2093 N.3     
  23 C23           -7.5685     7.2409     5.9105 C.3     
  24 C24           -8.2067     7.8633     7.1544 C.3     
  25 C25           -8.1735     6.8490     8.3009 C.3     
  26 C26           -6.7236     6.4303     8.5598 C.3     
  27 C27           -6.1284     5.8494     7.2752 C.3     
  28 O28           -9.0560     8.8297    11.2538 O.3     
  29 C29           -8.2913     8.5656    10.1800 C.2     
  30 C30           -8.7463     7.4767     9.5455 C.2     
  31 C31           -9.9152     7.0186    10.3060 C.ar    
  32 C32          -10.0483     7.9245    11.3718 C.ar    
  33 C33          -10.8134     5.9615    10.1692 C.ar    
  34 C34          -11.8315     5.8109    11.0849 C.ar    
  35 C35          -11.9636     6.7049    12.1374 C.ar    
  36 C36          -11.0819     7.7545    12.2838 C.ar    
  37 H37            0.5293    -0.3651     0.8851 H       
  38 H38           -1.0205    -0.3814     0.0098 H       
  39 H39            0.7330    -1.5874    -1.2628 H       
  40 H40            0.4884    -0.3422    -3.3931 H       
  41 H41           -1.0444    -0.3679    -2.4886 H       
  42 H42           -0.5697     1.9003    -3.3710 H       
  43 H43            1.9030     1.7172    -3.3956 H       
  44 H44            1.3781     3.1587    -2.4928 H       
  45 H45            3.1554     1.9392    -1.2670 H       
  46 H46            1.4019     3.1452     0.0056 H       
  47 H47            1.9439     1.6943     0.8826 H       
  48 H48            2.6808    -0.3290    -0.3846 H       
  49 H49            2.6638    -0.3194    -2.1644 H       
  50 H50           -1.7813     1.6553    -1.2214 H       
  51 H51           -0.7734     3.1225    -1.2231 H       
  52 H52           -0.5092     3.9726     0.8335 H       
  53 H53           -1.3329     3.1321     3.5061 H       
  54 H54            0.0158     5.1907     3.2031 H       
  55 H55           -1.2751     5.8881     2.1953 H       
  56 H56           -1.5594     5.0330     5.1116 H       
  57 H57           -1.4265     6.7099     4.5299 H       
  58 H58           -3.5002     6.4139     3.2029 H       
  59 H59           -3.5579     3.6579     4.5137 H       
  60 H60           -4.8488     4.3552     3.5059 H       
  61 H61           -3.2737     4.5130     1.5974 H       
  62 H62           -3.4065     2.8360     2.1791 H       
  63 H63           -3.8575     5.5125     6.0958 H       
  64 H64           -3.5886     7.1973     5.5884 H       
  65 H65           -5.6379     7.1049     4.1954 H       
  66 H66           -5.9068     5.4201     4.7028 H       
  67 H67           -7.5776     7.9656     5.0963 H       
  68 H68           -8.1339     6.3568     5.6159 H       
  69 H69           -7.6499     8.7553     7.4414 H       
  70 H70           -9.2402     8.1330     6.9369 H       
  71 H71           -8.7626     5.9730     8.0295 H       
  72 H72           -6.1435     7.2998     8.8690 H       
  73 H73           -6.6975     5.6763     9.3464 H       
  74 H74           -6.7006     4.9719     6.9742 H       
  75 H75           -5.0915     5.5636     7.4522 H       
  76 H76           -7.4344     9.1470     9.8732 H       
  77 H77          -10.7120     5.2650     9.3501 H       
  78 H78          -12.5301     4.9936    10.9828 H       
  79 H79          -12.7657     6.5775    12.8492 H       
  80 H80          -11.1947     8.4440    13.1074 H       
@<TRIPOS>BOND
   1    1    2 1
   2    1    8 1
   3    1   10 1
   4    1   11 1
   5    2    3 1
   6    2   37 1
   7    2   38 1
   8    3    4 1
   9    3    9 1
  10    3   39 1
  11    4    5 1
  12    4   40 1
  13    4   41 1
  14    5    6 1
  15    5   10 1
  16    5   42 1
  17    6    7 1
  18    6   43 1
  19    6   44 1
  20    7    8 1
  21    7    9 1
  22    7   45 1
  23    8   46 1
  24    8   47 1
  25    9   48 1
  26    9   49 1
  27   10   50 1
  28   10   51 1
  29   11   12 2
  30   11   13 am
  31   13   14 1
  32   13   52 1
  33   14   15 1
  34   14   19 1
  35   14   53 1
  36   15   16 1
  37   15   54 1
  38   15   55 1
  39   16   17 1
  40   16   56 1
  41   16   57 1
  42   17   18 1
  43   17   20 1
  44   17   58 1
  45   18   19 1
  46   18   59 1
  47   18   60 1
  48   19   61 1
  49   19   62 1
  50   20   21 1
  51   20   63 1
  52   20   64 1
  53   21   22 1
  54   21   65 1
  55   21   66 1
  56   22   23 1
  57   22   27 1
  58   23   24 1
  59   23   67 1
  60   23   68 1
  61   24   25 1
  62   24   69 1
  63   24   70 1
  64   25   26 1
  65   25   30 1
  66   25   71 1
  67   26   27 1
  68   26   72 1
  69   26   73 1
  70   27   74 1
  71   27   75 1
  72   28   29 1
  73   28   32 1
  74   29   30 2
  75   29   76 1
  76   30   31 1
  77   31   32 ar
  78   31   33 ar
  79   32   36 ar
  80   33   34 ar
  81   33   77 1
  82   34   35 ar
  83   34   78 1
  84   35   36 ar
  85   35   79 1
  86   36   80 1

#	End of record

