#	Name: ASD02198323
#	Creating user name:	WinNT
#	Creation time:	15. 06. 2019 20:19

#	Modifying user name:	WinNT
#	Modification time:	15. 06. 2019 20:19

#	Program:	/corina/corina34_cracker 3.40 0067  02.08.2006

@<TRIPOS>MOLECULE
ASD02198323
  34   36    0    0    0
SMALL
NO_CHARGES


@<TRIPOS>ATOM
   1 C1             1.5490     1.6327    -0.9674 C.2     
   2 C2             1.6158     0.2836    -0.6693 C.2     
   3 S3             2.8652     2.4351    -0.1144 S.3     
   4 C4             3.3712     0.9418     0.5439 C.2     
   5 N5             2.6027    -0.0277     0.1377 N.2     
   6 N6             0.7253    -0.6499    -1.1742 N.pl3   
   7 C7             0.6036     2.2518    -1.8058 C.2     
   8 C8             0.5572     3.7279    -1.9055 C.ar    
   9 O9            -0.1773     1.5724    -2.4503 O.2     
  10 N10            4.4462     0.7849     1.3899 N.pl3   
  11 C11           -0.0307     4.3370    -3.0149 C.ar    
  12 C12            1.0959     4.5159    -0.8880 C.ar    
  13 C13            1.0494     5.8916    -0.9860 C.ar    
  14 C14            0.4703     6.4903    -2.0902 C.ar    
  15 C15           -0.0711     5.7143    -3.1015 C.ar    
  16 C16            4.8625    -0.4982     1.7615 C.ar    
  17 C17            4.3033    -1.6141     1.1544 C.ar    
  18 C18            4.7169    -2.8800     1.5231 C.ar    
  19 C19            5.6864    -3.0370     2.4960 C.ar    
  20 C20            6.2468    -1.9282     3.1041 C.ar    
  21 C21            5.8422    -0.6584     2.7363 C.ar    
  22 F22            6.3894     0.4247     3.3301 F       
  23 Cl23          -0.7954     6.4746    -4.4839 Cl      
  24 H24            0.0117    -0.3680    -1.7676 H       
  25 H25            0.8154    -1.5855    -0.9342 H       
  26 H26            4.9148     1.5638     1.7283 H       
  27 H27           -0.4527     3.7323    -3.8040 H       
  28 H28            1.5482     4.0501    -0.0250 H       
  29 H29            1.4659     6.5022    -0.1986 H       
  30 H30            0.4364     7.5674    -2.1621 H       
  31 H31            3.5453    -1.4932     0.3947 H       
  32 H32            4.2817    -3.7482     1.0507 H       
  33 H33            6.0067    -4.0279     2.7823 H       
  34 H34            7.0037    -2.0544     3.8640 H       
@<TRIPOS>BOND
   1    1    2 2
   2    1    3 1
   3    1    7 1
   4    2    6 1
   5    2    5 1
   6    3    4 1
   7    4    5 2
   8    4   10 1
   9    6   24 1
  10    6   25 1
  11    7    8 1
  12    7    9 2
  13    8   11 ar
  14    8   12 ar
  15   10   16 1
  16   10   26 1
  17   11   15 ar
  18   11   27 1
  19   12   13 ar
  20   12   28 1
  21   13   14 ar
  22   13   29 1
  23   14   15 ar
  24   14   30 1
  25   15   23 1
  26   16   17 ar
  27   16   21 ar
  28   17   18 ar
  29   17   31 1
  30   18   19 ar
  31   18   32 1
  32   19   20 ar
  33   19   33 1
  34   20   21 ar
  35   20   34 1
  36   21   22 1

#	End of record

