#	Name: ASD03090892
#	Creating user name:	WinNT
#	Creation time:	15. 06. 2019 20:29

#	Modifying user name:	WinNT
#	Modification time:	15. 06. 2019 20:29

#	Program:	/corina/corina34_cracker 3.40 0067  02.08.2006

@<TRIPOS>MOLECULE
ASD03090892
  41   44    0    0    0
SMALL
NO_CHARGES


@<TRIPOS>ATOM
   1 N1            -0.0189     1.4674    -0.0872 N.am    
   2 C2             0.0008    -0.0024    -0.1208 C.3     
   3 C3             1.4804    -0.4406    -0.1346 C.3     
   4 C4             2.2128     0.7898     0.4631 C.3     
   5 C5             1.3707     1.9593    -0.1052 C.3     
   6 C6            -1.1244     2.2375    -0.0516 C.2     
   7 O7            -2.2277     1.7199    -0.0453 O.2     
   8 N8            -1.0106     3.5691    -0.0232 N.2     
   9 S9            -3.7375     3.7927     0.0270 S.3     
  10 C10           -2.1013     4.3289     0.0119 C.2     
  11 N11           -2.1513     5.6863     0.0430 N.pl3   
  12 C12           -3.3757     6.2594     0.0762 C.2     
  13 C13           -4.4312     5.4229     0.0750 C.2     
  14 C14           -5.8538     5.7846     0.1060 C.2     
  15 N15           -6.7592     4.8561     0.1000 N.2     
  16 O16           -6.3757     3.4935     0.0636 O.3     
  17 O17            2.3025     8.9475     0.0167 O.3     
  18 C18            1.6266    10.1826     0.3175 C.3     
  19 O19            0.2802     9.9561    -0.1397 O.3     
  20 C20            0.0889     8.6070    -0.0566 C.ar    
  21 C21            1.3326     7.9862     0.0396 C.ar    
  22 C22           -1.0655     7.8431    -0.0560 C.ar    
  23 C23           -0.9824     6.4604     0.0414 C.ar    
  24 C24            0.2579     5.8448     0.1376 C.ar    
  25 C25            1.4110     6.6065     0.1361 C.ar    
  26 F26            1.6431    10.4293     1.6945 F       
  27 F27            2.2105    11.2452    -0.3805 F       
  28 H28           -0.4955    -0.4001     0.7644 H       
  29 H29           -0.4999    -0.3592    -1.0209 H       
  30 H30            1.6281    -1.3196     0.4928 H       
  31 H31            1.8165    -0.6319    -1.1536 H       
  32 H32            2.1761     0.7752     1.5524 H       
  33 H33            3.2424     0.8416     0.1091 H       
  34 H34            1.6790     2.1880    -1.1254 H       
  35 H35            1.4694     2.8407     0.5284 H       
  36 H36           -3.5006     7.3318     0.1026 H       
  37 H37           -6.1463     6.8238     0.1337 H       
  38 H38           -7.1195     2.8755     0.0619 H       
  39 H39           -2.0305     8.3223    -0.1308 H       
  40 H40            0.3218     4.7694     0.2133 H       
  41 H41            2.3750     6.1252     0.2107 H       
@<TRIPOS>BOND
   1    1    2 1
   2    1    5 1
   3    1    6 am
   4    2    3 1
   5    2   28 1
   6    2   29 1
   7    3    4 1
   8    3   30 1
   9    3   31 1
  10    4    5 1
  11    4   32 1
  12    4   33 1
  13    5   34 1
  14    5   35 1
  15    6    7 2
  16    6    8 1
  17    8   10 2
  18    9   10 1
  19    9   13 1
  20   10   11 1
  21   11   12 1
  22   11   23 1
  23   12   13 2
  24   12   36 1
  25   13   14 1
  26   14   15 2
  27   14   37 1
  28   15   16 1
  29   16   38 1
  30   17   18 1
  31   17   21 1
  32   18   19 1
  33   18   26 1
  34   18   27 1
  35   19   20 1
  36   20   21 ar
  37   20   22 ar
  38   21   25 ar
  39   22   23 ar
  40   22   39 1
  41   23   24 ar
  42   24   25 ar
  43   24   40 1
  44   25   41 1

#	End of record

