#	Name: ASD02030460
#	Creating user name:	WinNT
#	Creation time:	15. 06. 2019 20:15

#	Modifying user name:	WinNT
#	Modification time:	15. 06. 2019 20:15

#	Program:	/corina/corina34_cracker 3.40 0067  02.08.2006

@<TRIPOS>MOLECULE
ASD02030460
  50   52    0    0    0
SMALL
NO_CHARGES


@<TRIPOS>ATOM
   1 N1             0.1238     1.3057     0.5165 N.am    
   2 C2             0.0986    -0.1404     0.2555 C.3     
   3 C3             0.7991    -0.4092    -1.0821 C.3     
   4 N4             2.0927     0.2884    -1.0833 N.am    
   5 C5             2.1179     1.7344    -0.8223 C.3     
   6 C6             1.4173     2.0032     0.5154 C.3     
   7 C7            -1.0195     1.9811     0.7473 C.2     
   8 O8            -2.0903     1.4158     0.6452 O.2     
   9 O9            -0.9752     3.2821     1.0909 O.3     
  10 C10            0.8332    -0.8775     1.3771 C.3     
  11 C11           -1.3512    -0.6238     0.1821 C.3     
  12 C12            3.2355    -0.3861    -1.3191 C.2     
  13 C13            4.5148     0.3456    -1.4371 C.ar    
  14 C14            5.7020    -0.2435    -0.9991 C.ar    
  15 C15            6.8932     0.4452    -1.1127 C.ar    
  16 C16            6.9110     1.7173    -1.6597 C.ar    
  17 C17            5.7374     2.3059    -2.0949 C.ar    
  18 C18            4.5412     1.6257    -1.9921 C.ar    
  19 O19            3.2144    -1.5959    -1.4347 O.2     
  20 Cl20           8.3713    -0.2847    -0.5683 Cl      
  21 C21           -2.2453     3.9459     1.3243 C.3     
  22 C22           -1.9990     5.3855     1.6957 C.ar    
  23 C23           -1.9379     6.3528     0.7101 C.ar    
  24 C24           -1.7119     7.6733     1.0508 C.ar    
  25 C25           -1.5474     8.0266     2.3771 C.ar    
  26 C26           -1.6094     7.0593     3.3628 C.ar    
  27 C27           -1.8397     5.7395     3.0225 C.ar    
  28 H28            0.9611    -1.4804    -1.2015 H       
  29 H29            0.1819    -0.0367    -1.8997 H       
  30 H30            3.1507     2.0788    -0.7700 H       
  31 H31            1.5945     2.2595    -1.6213 H       
  32 H32            1.2554     3.0745     0.6347 H       
  33 H33            2.0345     1.6307     1.3329 H       
  34 H34            0.3425    -0.6727     2.3286 H       
  35 H35            0.8131    -1.9496     1.1813 H       
  36 H36            1.8672    -0.5353     1.4204 H       
  37 H37           -1.8787    -0.0735    -0.5971 H       
  38 H38           -1.3678    -1.6886    -0.0502 H       
  39 H39           -1.8399    -0.4535     1.1414 H       
  40 H40            5.6888    -1.2354    -0.5721 H       
  41 H41            7.8452     2.2523    -1.7466 H       
  42 H42            5.7579     3.2985    -2.5199 H       
  43 H43            3.6264     2.0849    -2.3368 H       
  44 H44           -2.8497     3.9027     0.4183 H       
  45 H45           -2.7726     3.4461     2.1370 H       
  46 H46           -2.0664     6.0769    -0.3261 H       
  47 H47           -1.6635     8.4290     0.2807 H       
  48 H48           -1.3701     9.0581     2.6432 H       
  49 H49           -1.4805     7.3353     4.3989 H       
  50 H50           -1.8918     4.9844     3.7928 H       
@<TRIPOS>BOND
   1    1    2 1
   2    1    6 1
   3    1    7 am
   4    2    3 1
   5    2   10 1
   6    2   11 1
   7    3    4 1
   8    3   28 1
   9    3   29 1
  10    4    5 1
  11    4   12 am
  12    5    6 1
  13    5   30 1
  14    5   31 1
  15    6   32 1
  16    6   33 1
  17    7    8 2
  18    7    9 1
  19    9   21 1
  20   10   34 1
  21   10   35 1
  22   10   36 1
  23   11   37 1
  24   11   38 1
  25   11   39 1
  26   12   13 1
  27   12   19 2
  28   13   14 ar
  29   13   18 ar
  30   14   15 ar
  31   14   40 1
  32   15   16 ar
  33   15   20 1
  34   16   17 ar
  35   16   41 1
  36   17   18 ar
  37   17   42 1
  38   18   43 1
  39   21   22 1
  40   21   44 1
  41   21   45 1
  42   22   23 ar
  43   22   27 ar
  44   23   24 ar
  45   23   46 1
  46   24   25 ar
  47   24   47 1
  48   25   26 ar
  49   25   48 1
  50   26   27 ar
  51   26   49 1
  52   27   50 1

#	End of record

