#	Name: ASD03092015
#	Creating user name:	WinNT
#	Creation time:	15. 06. 2019 20:31

#	Modifying user name:	WinNT
#	Modification time:	15. 06. 2019 20:31

#	Program:	/corina/corina34_cracker 3.40 0067  02.08.2006

@<TRIPOS>MOLECULE
ASD03092015
  40   42    0    0    0
SMALL
NO_CHARGES


@<TRIPOS>ATOM
   1 N1             0.1175     1.3351     0.0508 N.am    
   2 C2            -0.0096    -0.0283    -0.0080 C.2     
   3 C3            -1.3422    -0.3111    -0.0567 C.2     
   4 C4            -2.0413     0.9065    -0.0268 C.2     
   5 N5            -1.1705     1.8855     0.0426 N.2     
   6 C6             1.2748     2.0230     0.1117 C.2     
   7 N7             1.2625     3.3693     0.0512 N.am    
   8 C8             2.5206     4.1171     0.1174 C.3     
   9 N9            -3.4308     1.0509    -0.0603 N.pl3   
  10 C10           -4.0057     2.3149     0.0934 C.ar    
  11 C11           -5.2615     2.5779    -0.4388 C.ar    
  12 C12           -5.8271     3.8285    -0.2845 C.ar    
  13 C13           -5.1445     4.8182     0.3983 C.ar    
  14 C14           -3.8937     4.5600     0.9291 C.ar    
  15 C15           -3.3250     3.3101     0.7840 C.ar    
  16 C16            1.0954    -1.0115    -0.0175 C.ar    
  17 O17            2.3295     1.4293     0.2213 O.2     
  18 C18            2.2793    -0.7443    -0.7138 C.ar    
  19 C19            3.2831    -1.6970    -0.6909 C.ar    
  20 C20            3.0859    -2.8713     0.0125 C.ar    
  21 N21            1.9587    -3.0962     0.6601 N.ar    
  22 C22            0.9769    -2.2186     0.6724 C.ar    
  23 C23           -7.1895     4.1147    -0.8616 C.3     
  24 F24           -8.1712     3.8109     0.0877 F       
  25 F25           -7.2756     5.4683    -1.2047 F       
  26 F26           -7.3864     3.3308    -2.0034 F       
  27 H27           -1.7821    -1.2960    -0.1095 H       
  28 H28            0.4207     3.8432    -0.0362 H       
  29 H29            2.3122     5.1851     0.0537 H       
  30 H30            3.0228     3.9005     1.0602 H       
  31 H31            3.1627     3.8220    -0.7125 H       
  32 H32           -3.9962     0.2735    -0.1904 H       
  33 H33           -5.7949     1.8055    -0.9729 H       
  34 H34           -5.5889     5.7954     0.5172 H       
  35 H35           -3.3631     5.3354     1.4616 H       
  36 H36           -2.3484     3.1090     1.1990 H       
  37 H37            2.4065     0.1813    -1.2554 H       
  38 H38            4.2104    -1.5253    -1.2171 H       
  39 H39            3.8674    -3.6166     0.0318 H       
  40 H40            0.0690    -2.4386     1.2144 H       
@<TRIPOS>BOND
   1    1    2 1
   2    1    6 am
   3    1    5 1
   4    2    3 2
   5    2   16 1
   6    3    4 1
   7    3   27 1
   8    4    5 2
   9    4    9 1
  10    6    7 am
  11    6   17 2
  12    7    8 1
  13    7   28 1
  14    8   29 1
  15    8   30 1
  16    8   31 1
  17    9   10 1
  18    9   32 1
  19   10   11 ar
  20   10   15 ar
  21   11   12 ar
  22   11   33 1
  23   12   13 ar
  24   12   23 1
  25   13   14 ar
  26   13   34 1
  27   14   15 ar
  28   14   35 1
  29   15   36 1
  30   16   18 ar
  31   16   22 ar
  32   18   19 ar
  33   18   37 1
  34   19   20 ar
  35   19   38 1
  36   20   21 ar
  37   20   39 1
  38   21   22 ar
  39   22   40 1
  40   23   24 1
  41   23   25 1
  42   23   26 1

#	End of record

