#	Name: ASD03430266
#	Creating user name:	WinNT
#	Creation time:	15. 06. 2019 20:40

#	Modifying user name:	WinNT
#	Modification time:	15. 06. 2019 20:40

#	Program:	/corina/corina34_cracker 3.40 0067  02.08.2006

@<TRIPOS>MOLECULE
ASD03430266
  36   39    0    0    0
SMALL
NO_CHARGES


@<TRIPOS>ATOM
   1 C1            -0.0163     1.3475     0.0095 C.2     
   2 N2             0.0021    -0.0041     0.0020 N.am    
   3 C3             1.1816    -0.6746    -0.0128 C.2     
   4 N4             2.3303    -0.0584    -0.0201 N.2     
   5 C5             1.2237     2.0338     0.0013 C.2     
   6 N6             1.5814     3.3390     0.0049 N.2     
   7 C7             2.4013     1.2801    -0.0135 C.2     
   8 N8             3.4294     2.1824    -0.0181 N.pl3   
   9 C9             2.8801     3.4296    -0.0070 C.2     
  10 C10            4.8598     1.8658    -0.0328 C.3     
  11 O11            5.6028     2.9779    -0.5761 O.3     
  12 C12            6.4174     3.5161     0.4507 C.3     
  13 C13            5.3639     1.6355     1.4173 C.3     
  14 C14            7.7033     4.1981     0.0326 C.3     
  15 O15            8.2745     4.7829     1.2277 O.3     
  16 P16            8.4357     3.8920     2.5751 P.3     
  17 O17            7.1683     2.8656     2.6186 O.3     
  18 C18            6.7485     2.3088     1.3678 C.3     
  19 O19            4.5124     2.2821     2.3654 O.3     
  20 C20            1.1630    -2.1815    -0.0208 C.3     
  21 O21            9.8142     3.0617     2.5237 O.3     
  22 O22            8.4167     4.7695     3.7667 O.2     
  23 O23           -1.0705     1.9594     0.0178 O.2     
  24 H24           -0.8330    -0.4976     0.0077 H       
  25 H25            3.4383     4.3541    -0.0077 H       
  26 H26            5.0354     0.9739    -0.6341 H       
  27 H27            5.8226     4.2218     1.0307 H       
  28 H28            5.4530     0.5715     1.6363 H       
  29 H29            8.3923     3.4670    -0.3904 H       
  30 H30            7.4907     4.9778    -0.6988 H       
  31 H31            7.5044     1.6551     0.9326 H       
  32 H32            3.6011     1.9588     2.3603 H       
  33 H33            1.1487    -2.5392    -1.0503 H       
  34 H34            2.0533    -2.5584     0.4826 H       
  35 H35            0.2736    -2.5366     0.4997 H       
  36 H36           10.6044     3.6151     2.4567 H       
@<TRIPOS>BOND
   1    1    2 am
   2    1    5 1
   3    1   23 2
   4    2    3 1
   5    2   24 1
   6    3    4 2
   7    3   20 1
   8    4    7 1
   9    5    7 2
  10    5    6 1
  11    6    9 2
  12    7    8 1
  13    8    9 1
  14    8   10 1
  15    9   25 1
  16   10   11 1
  17   10   13 1
  18   10   26 1
  19   11   12 1
  20   12   14 1
  21   12   18 1
  22   12   27 1
  23   13   19 1
  24   13   18 1
  25   13   28 1
  26   14   15 1
  27   14   29 1
  28   14   30 1
  29   15   16 1
  30   16   17 1
  31   16   21 1
  32   16   22 2
  33   17   18 1
  34   18   31 1
  35   19   32 1
  36   20   33 1
  37   20   34 1
  38   20   35 1
  39   21   36 1

#	End of record

