#	Name: ASD04880474
#	Creating user name:	WinNT
#	Creation time:	15. 06. 2019 20:53

#	Modifying user name:	WinNT
#	Modification time:	15. 06. 2019 20:53

#	Program:	/corina/corina34_cracker 3.40 0067  02.08.2006

@<TRIPOS>MOLECULE
ASD04880474
  54   56    0    0    0
SMALL
NO_CHARGES


@<TRIPOS>ATOM
   1 C1            -0.4035     1.6322     0.1848 C.ar    
   2 C2            -0.3038     0.2427     0.1762 C.ar    
   3 C3            -1.4478    -0.5323     0.1388 C.ar    
   4 C4            -2.7027     0.0815     0.1101 C.ar    
   5 C5            -2.7951     1.4756     0.1194 C.ar    
   6 C6            -1.6495     2.2419     0.1621 C.ar    
   7 O7             0.7228     2.3925     0.2212 O.3     
   8 C8             0.5481     3.8108     0.2280 C.3     
   9 C9            -3.9263    -0.7399     0.0696 C.2     
  10 C10           -5.3387    -0.2054     0.1441 C.3     
  11 C11           -6.2186    -1.4684     0.0601 C.3     
  12 N12           -5.2414    -2.5631    -0.0508 N.am    
  13 N13           -3.9569    -2.0231    -0.0403 N.2     
  14 C14           -5.5402    -3.8735    -0.1510 C.2     
  15 O15           -6.6926    -4.2416    -0.0605 O.2     
  16 C16           -4.4427    -4.8815    -0.3755 C.3     
  17 C17           -4.2654    -5.7162     0.8666 C.ar    
  18 O18           -3.2219    -4.1991    -0.6691 O.3     
  19 C19           -5.0484    -6.8408     1.0628 C.ar    
  20 C20           -3.0142    -3.9526    -2.0613 C.3     
  21 O21            0.9192    -0.3514     0.2042 O.3     
  22 C22            0.9469    -1.7801     0.1933 C.3     
  23 C23           -4.8845    -7.6068     2.2048 C.ar    
  24 C24           -3.9397    -7.2479     3.1470 C.ar    
  25 C25           -3.1582    -6.1244     2.9500 C.ar    
  26 C26           -3.3170    -5.3623     1.8078 C.ar    
  27 F27           -5.9722    -7.1906     0.1411 F       
  28 C28           -7.0598    -1.6240     1.3286 C.3     
  29 C29           -7.1145    -1.4190    -1.1792 C.3     
  30 H30           -1.3718    -1.6096     0.1313 H       
  31 H31           -3.7636     1.9529     0.0969 H       
  32 H32           -1.7221     3.3195     0.1696 H       
  33 H33            0.0178     4.1159    -0.6741 H       
  34 H34           -0.0299     4.1015     1.1052 H       
  35 H35            1.5233     4.2968     0.2581 H       
  36 H36           -5.5023     0.3122     1.0893 H       
  37 H37           -5.5413     0.4583    -0.6965 H       
  38 H38           -4.7082    -5.5274    -1.2124 H       
  39 H39           -2.9899    -4.9006    -2.5985 H       
  40 H40           -3.8273    -3.3373    -2.4465 H       
  41 H41           -2.0669    -3.4316    -2.2006 H       
  42 H42            0.4165    -2.1604     1.0664 H       
  43 H43            0.4642    -2.1460    -0.7129 H       
  44 H44            1.9810    -2.1237     0.2183 H       
  45 H45           -5.4950    -8.4842     2.3590 H       
  46 H46           -3.8119    -7.8450     4.0378 H       
  47 H47           -2.4202    -5.8445     3.6872 H       
  48 H48           -2.7060    -4.4850     1.6550 H       
  49 H49           -7.7036    -0.7524     1.4468 H       
  50 H50           -7.6738    -2.5212     1.2496 H       
  51 H51           -6.4014    -1.7093     2.1930 H       
  52 H52           -6.4945    -1.3604    -2.0737 H       
  53 H53           -7.7277    -2.3192    -1.2204 H       
  54 H54           -7.7597    -0.5420    -1.1263 H       
@<TRIPOS>BOND
   1    1    2 ar
   2    1    7 1
   3    1    6 ar
   4    2    3 ar
   5    2   21 1
   6    3    4 ar
   7    3   30 1
   8    4    5 ar
   9    4    9 1
  10    5    6 ar
  11    5   31 1
  12    6   32 1
  13    7    8 1
  14    8   33 1
  15    8   34 1
  16    8   35 1
  17    9   10 1
  18    9   13 2
  19   10   11 1
  20   10   36 1
  21   10   37 1
  22   11   12 1
  23   11   28 1
  24   11   29 1
  25   12   13 1
  26   12   14 am
  27   14   15 2
  28   14   16 1
  29   16   17 1
  30   16   18 1
  31   16   38 1
  32   17   19 ar
  33   17   26 ar
  34   18   20 1
  35   19   23 ar
  36   19   27 1
  37   20   39 1
  38   20   40 1
  39   20   41 1
  40   21   22 1
  41   22   42 1
  42   22   43 1
  43   22   44 1
  44   23   24 ar
  45   23   45 1
  46   24   25 ar
  47   24   46 1
  48   25   26 ar
  49   25   47 1
  50   26   48 1
  51   28   49 1
  52   28   50 1
  53   28   51 1
  54   29   52 1
  55   29   53 1
  56   29   54 1

#	End of record

