#	Name: ASD05920001
#	Creating user name:	WinNT
#	Creation time:	15. 06. 2019 21:04

#	Modifying user name:	WinNT
#	Modification time:	15. 06. 2019 21:04

#	Program:	/corina/corina34_cracker 3.40 0067  02.08.2006

@<TRIPOS>MOLECULE
ASD05920001
  42   43    0    0    0
SMALL
NO_CHARGES


@<TRIPOS>ATOM
   1 C1             0.0047     1.3873    -0.0860 C.ar    
   2 C2            -0.0217     0.0357     0.0136 C.ar    
   3 C3             1.1918    -0.6911     0.1010 C.ar    
   4 C4             2.4618     0.0438     0.0816 C.ar    
   5 C5             2.4342     1.4240    -0.0216 C.ar    
   6 C6             1.2171     2.0895    -0.1046 C.ar    
   7 N7             1.2022     3.4678    -0.2073 N.pl3   
   8 C8            -0.0738     4.1820    -0.2955 C.3     
   9 C9             0.1894     5.6856    -0.3998 C.3     
  10 N10           -1.0901     6.4018    -0.4883 N.3     
  11 N11            1.1798    -2.0134     0.1992 N.2     
  12 O12            2.2184    -2.6412     0.0961 O.2     
  13 C13           -0.0827    -2.7193     0.4318 C.3     
  14 N14            3.6640    -0.6299     0.1652 N.3     
  15 C15            4.3706    -0.2932     1.4077 C.3     
  16 C16            4.5008    -0.3611    -1.0112 C.3     
  17 C17            5.7570    -1.2334    -0.9553 C.3     
  18 C18            6.5323    -0.9216     0.3278 C.3     
  19 C19            5.6229    -1.1634     1.5358 C.3     
  20 H20           -0.9251     1.9322    -0.1566 H       
  21 H21           -0.9668    -0.4869     0.0266 H       
  22 H22            3.3580     1.9833    -0.0372 H       
  23 H23            2.0367     3.9622    -0.2209 H       
  24 H24           -0.6178     3.8463    -1.1784 H       
  25 H25           -0.6668     3.9780     0.5960 H       
  26 H26            0.7334     6.0213     0.4831 H       
  27 H27            0.7824     5.8897    -1.2913 H       
  28 H28           -0.9431     7.3976    -0.5581 H       
  29 H29           -1.6416     6.0626    -1.2622 H       
  30 H30           -0.5414    -2.9684    -0.5251 H       
  31 H31            0.1104    -3.6345     0.9913 H       
  32 H32           -0.7566    -2.0801     1.0022 H       
  33 H33            4.6591     0.7578     1.3880 H       
  34 H34            3.7143    -0.4736     2.2590 H       
  35 H35            3.9391    -0.5908    -1.9166 H       
  36 H36            4.7887     0.6902    -1.0195 H       
  37 H37            5.4704    -2.2850    -0.9609 H       
  38 H38            6.3854    -1.0223    -1.8205 H       
  39 H39            7.4051    -1.5714     0.3930 H       
  40 H40            6.8527     0.1201     0.3158 H       
  41 H41            6.1555    -0.9024     2.4503 H       
  42 H42            5.3342    -2.2140     1.5694 H       
@<TRIPOS>BOND
   1    1    2 ar
   2    1    6 ar
   3    1   20 1
   4    2    3 ar
   5    2   21 1
   6    3    4 ar
   7    3   11 1
   8    4    5 ar
   9    4   14 1
  10    5    6 ar
  11    5   22 1
  12    6    7 1
  13    7    8 1
  14    7   23 1
  15    8    9 1
  16    8   24 1
  17    8   25 1
  18    9   10 1
  19    9   26 1
  20    9   27 1
  21   10   28 1
  22   10   29 1
  23   11   12 2
  24   11   13 1
  25   13   30 1
  26   13   31 1
  27   13   32 1
  28   14   15 1
  29   14   16 1
  30   15   19 1
  31   15   33 1
  32   15   34 1
  33   16   17 1
  34   16   35 1
  35   16   36 1
  36   17   18 1
  37   17   37 1
  38   17   38 1
  39   18   19 1
  40   18   39 1
  41   18   40 1
  42   19   41 1
  43   19   42 1

#	End of record

