#	Name: ASD01830004
#	Creating user name:	WinNT
#	Creation time:	15. 06. 2019 19:36

#	Modifying user name:	WinNT
#	Modification time:	15. 06. 2019 19:36

#	Program:	/corina/corina34_cracker 3.40 0067  02.08.2006

@<TRIPOS>MOLECULE
ASD01830004
  80   81    0    0    0
SMALL
NO_CHARGES


@<TRIPOS>ATOM
   1 Cl1            0.0000     0.0000     0.0000 Cl      
   2 H2             0.0000     1.3700     0.0000 H       
   3 Cl3            5.0000     6.3700     5.0000 Cl      
   4 H4             5.0000     7.7400     5.0000 H       
   5 Cl5           10.0000    12.7400    10.0000 Cl      
   6 H6            10.0000    14.1100    10.0000 H       
   7 C7            30.9966    22.0139    15.9293 C.3     
   8 C8            30.1322    22.4868    17.0998 C.3     
   9 C9            30.6596    21.8795    18.4013 C.3     
  10 H10           31.7150    22.1232    18.5231 H       
  11 C11           30.4738    20.3477    18.3790 C.3     
  12 C12           30.0711    20.0232    19.8417 C.3     
  13 C13           29.2161    21.2605    20.2127 C.3     
  14 N14           29.8894    22.3997    19.5459 N.3     
  15 C15           28.9138    23.4075    19.1094 C.3     
  16 C16           28.0811    23.8438    20.2872 C.2     
  17 S17           26.5723    23.1030    20.8157 S.3     
  18 C18           26.4589    24.2658    22.1331 C.2     
  19 N19           25.4371    24.3164    23.0714 N.am    
  20 C20           25.4562    25.2547    24.0386 C.2     
  21 O21           26.3684    26.0568    24.0894 O.2     
  22 C22           24.3686    25.3086    25.0373 C.ar    
  23 C23           24.3853    26.2830    26.0347 C.ar    
  24 N24           23.4132    26.3307    26.9270 N.ar    
  25 C25           22.4201    25.4511    26.8743 C.ar    
  26 C26           22.4038    24.4734    25.8738 C.ar    
  27 N27           23.3684    24.4293    24.9817 N.ar    
  28 N28           21.4011    25.5011    27.8095 N.3     
  29 C29           21.9033    25.1818    29.1532 C.3     
  30 C30           20.7352    25.1698    30.1420 C.3     
  31 N31           20.0720    26.4811    30.1287 N.3     
  32 C32           18.9905    26.5342    31.1213 C.3     
  33 C33           17.8807    25.5609    30.7189 C.3     
  34 C34           16.7711    25.6154    31.7372 C.2     
  35 O35           15.6852    24.8405    31.5887 O.3     
  36 O36           16.8590    26.3566    32.6874 O.2     
  37 C37           19.5698    26.8004    28.7850 C.3     
  38 C38           20.7379    26.8124    27.7962 C.3     
  39 H39           21.4515    27.5838    28.0857 H       
  40 C40           20.2127    27.1045    26.3892 C.3     
  41 N41           27.4776    25.0669    22.0920 N.2     
  42 C42           28.3655    24.8633    21.1202 C.2     
  43 C43           29.5746    25.7000    20.9640 C.2     
  44 C44           29.6488    27.0184    21.2342 C.2     
  45 C45           30.8890    27.5841    21.0099 C.2     
  46 Cl46          31.2109    29.2666    21.2913 Cl      
  47 C47           31.8223    26.7406    20.5609 C.2     
  48 S48           31.1405    25.1272    20.4042 S.3     
  49 H49           30.9716    20.9255    15.8756 H       
  50 H50           30.6104    22.4325    15.0000 H       
  51 H51           32.0238    22.3467    16.0785 H       
  52 H52           30.1713    23.5741    17.1643 H       
  53 H53           29.1016    22.1689    16.9420 H       
  54 H54           29.6786    20.0659    17.6888 H       
  55 H55           31.4074    19.8500    18.1169 H       
  56 H56           29.4779    19.1100    19.8899 H       
  57 H57           30.9503    19.9500    20.4817 H       
  58 H58           28.1995    21.1459    19.8365 H       
  59 H59           29.2078    21.4060    21.2929 H       
  60 H60           29.4403    24.2686    18.6978 H       
  61 H61           28.2656    22.9786    18.3452 H       
  62 H62           24.7093    23.6764    23.0308 H       
  63 H63           25.1935    26.9982    26.0776 H       
  64 H64           21.5960    23.7578    25.8315 H       
  65 H65           22.3788    24.2011    29.1401 H       
  66 H66           22.6302    25.9346    29.4581 H       
  67 H67           20.0216    24.3984    29.8525 H       
  68 H68           21.1094    24.9617    31.1444 H       
  69 H69           19.3813    26.2551    32.0998 H       
  70 H70           18.5877    27.5461    31.1661 H       
  71 H71           17.4898    25.8401    29.7404 H       
  72 H72           18.2834    24.5491    30.6741 H       
  73 H73           15.0000    24.9102    32.2675 H       
  74 H74           18.8429    26.0476    28.4801 H       
  75 H75           19.0943    27.7812    28.7981 H       
  76 H76           19.5834    26.2786    26.0575 H       
  77 H77           19.6276    28.0241    26.4034 H       
  78 H78           21.0528    27.2189    25.7042 H       
  79 H79           28.8056    27.5875    21.5968 H       
  80 H80           32.8433    27.0083    20.3322 H       
@<TRIPOS>BOND
   1    1    2 1
   2    3    4 1
   3    5    6 1
   4    7    8 1
   5    7   49 1
   6    7   50 1
   7    7   51 1
   8    8    9 1
   9    8   52 1
  10    8   53 1
  11    9   10 1
  12    9   14 1
  13    9   11 1
  14   11   12 1
  15   11   54 1
  16   11   55 1
  17   12   13 1
  18   12   56 1
  19   12   57 1
  20   13   14 1
  21   13   58 1
  22   13   59 1
  23   14   15 1
  24   15   16 1
  25   15   60 1
  26   15   61 1
  27   16   42 2
  28   16   17 1
  29   17   18 1
  30   18   19 1
  31   18   41 2
  32   19   20 am
  33   19   62 1
  34   20   21 2
  35   20   22 1
  36   22   27 ar
  37   22   23 ar
  38   23   24 ar
  39   23   63 1
  40   24   25 ar
  41   25   26 ar
  42   25   28 1
  43   26   27 ar
  44   26   64 1
  45   28   38 1
  46   28   29 1
  47   29   30 1
  48   29   65 1
  49   29   66 1
  50   30   31 1
  51   30   67 1
  52   30   68 1
  53   31   32 1
  54   31   37 1
  55   32   33 1
  56   32   69 1
  57   32   70 1
  58   33   34 1
  59   33   71 1
  60   33   72 1
  61   34   35 1
  62   34   36 2
  63   35   73 1
  64   37   38 1
  65   37   74 1
  66   37   75 1
  67   38   39 1
  68   38   40 1
  69   40   76 1
  70   40   77 1
  71   40   78 1
  72   41   42 1
  73   42   43 1
  74   43   48 1
  75   43   44 2
  76   44   45 1
  77   44   79 1
  78   45   46 1
  79   45   47 2
  80   47   48 1
  81   47   80 1

#	End of record

