#	Name: ASD01890119
#	Creating user name:	WinNT
#	Creation time:	15. 06. 2019 19:50

#	Modifying user name:	WinNT
#	Modification time:	15. 06. 2019 19:50

#	Program:	/corina/corina34_cracker 3.40 0067  02.08.2006

@<TRIPOS>MOLECULE
ASD01890119
  40   43    0    0    0
SMALL
NO_CHARGES


@<TRIPOS>ATOM
   1 C1            -0.0178     1.4580     0.0101 C.2     
   2 C2             0.0021    -0.0041     0.0020 C.2     
   3 C3             1.1809    -0.6634    -0.0128 C.2     
   4 O4             1.0281     2.0810     0.0034 O.2     
   5 C5             1.2008    -2.1343    -0.0209 C.ar    
   6 C6             2.4196    -2.8210    -0.0362 C.ar    
   7 C7             2.4298    -4.1996    -0.0437 C.ar    
   8 C8             1.2384    -4.9043    -0.0367 C.ar    
   9 C9             0.0283    -4.2323    -0.0220 C.ar    
  10 C10            0.0011    -2.8539    -0.0075 C.ar    
  11 C11           -1.3223     3.5690     0.0277 C.ar    
  12 C12           -1.3081     2.1798     0.0201 C.ar    
  13 C13           -2.5109     1.4579     0.0214 C.ar    
  14 C14           -3.7097     2.1052     0.0306 C.ar    
  15 C15           -3.7507     3.5024     0.0384 C.ar    
  16 C16           -5.0240     4.2283     0.0483 C.ar    
  17 C17           -6.2438     3.5465     0.0502 C.ar    
  18 C18           -7.4140     4.2502     0.0601 C.ar    
  19 C19           -7.4065     5.6398     0.0683 C.ar    
  20 C20           -6.2321     6.3335     0.0667 C.ar    
  21 C21           -5.0121     5.6411     0.0566 C.ar    
  22 C22           -3.7862     6.3466     0.0551 C.ar    
  23 C23           -2.6015     5.7022     0.0455 C.ar    
  24 C24           -2.5465     4.2443     0.0372 C.ar    
  25 H25           -0.9258    -0.5567     0.0079 H       
  26 H26            2.1087    -0.1108    -0.0187 H       
  27 H27            3.3500    -2.2726    -0.0425 H       
  28 H28            3.3698    -4.7312    -0.0556 H       
  29 H29            1.2530    -5.9842    -0.0430 H       
  30 H30           -0.8970    -4.7893    -0.0169 H       
  31 H31           -0.9437    -2.3311     0.0093 H       
  32 H32           -0.3952     4.1229     0.0308 H       
  33 H33           -2.4865     0.3782     0.0147 H       
  34 H34           -4.6290     1.5384     0.0315 H       
  35 H35           -6.2609     2.4666     0.0435 H       
  36 H36           -8.3555     3.7212     0.0612 H       
  37 H37           -8.3430     6.1776     0.0758 H       
  38 H38           -6.2414     7.4134     0.0727 H       
  39 H39           -3.7991     7.4266     0.0615 H       
  40 H40           -1.6837     6.2714     0.0440 H       
@<TRIPOS>BOND
   1    1    2 1
   2    1    4 2
   3    1   12 1
   4    2    3 2
   5    2   25 1
   6    3    5 1
   7    3   26 1
   8    5    6 ar
   9    5   10 ar
  10    6    7 ar
  11    6   27 1
  12    7    8 ar
  13    7   28 1
  14    8    9 ar
  15    8   29 1
  16    9   10 ar
  17    9   30 1
  18   10   31 1
  19   11   12 ar
  20   11   24 ar
  21   11   32 1
  22   12   13 ar
  23   13   14 ar
  24   13   33 1
  25   14   15 ar
  26   14   34 1
  27   15   16 ar
  28   15   24 ar
  29   16   17 ar
  30   16   21 ar
  31   17   18 ar
  32   17   35 1
  33   18   19 ar
  34   18   36 1
  35   19   20 ar
  36   19   37 1
  37   20   21 ar
  38   20   38 1
  39   21   22 ar
  40   22   23 ar
  41   22   39 1
  42   23   24 ar
  43   23   40 1

#	End of record

