#	Name: ASD01914985
#	Creating user name:	WinNT
#	Creation time:	15. 06. 2019 20:04

#	Modifying user name:	WinNT
#	Modification time:	15. 06. 2019 20:04

#	Program:	/corina/corina34_cracker 3.40 0067  02.08.2006

@<TRIPOS>MOLECULE
ASD01914985
  33   35    0    0    0
SMALL
NO_CHARGES


@<TRIPOS>ATOM
   1 C1            -0.0167     1.3814     0.0096 C.ar    
   2 C2             0.0021    -0.0041     0.0020 C.ar    
   3 C3             1.2184    -0.6632    -0.0130 C.ar    
   4 N4             2.3592     0.0006    -0.0192 N.ar    
   5 C5             2.3941     1.3163    -0.0120 C.ar    
   6 C6             1.2067     2.0516     0.0016 C.ar    
   7 C7             3.7079     2.0541    -0.0172 C.3     
   8 C8             3.5744     3.3495    -0.8140 C.3     
   9 N9             2.4262     4.1296    -0.3601 N.am    
  10 C10            1.2764     3.5272     0.0059 C.2     
  11 O11            0.3111     4.1890     0.3343 O.2     
  12 C12            1.2413    -2.1700    -0.0219 C.3     
  13 O13           -0.0985    -2.6668    -0.0125 O.3     
  14 C14           -0.2561    -4.0166    -0.0189 C.ar    
  15 C15           -1.5293    -4.5675    -0.0104 C.ar    
  16 C16           -1.6868    -5.9399    -0.0168 C.ar    
  17 C17           -0.5769    -6.7643    -0.0317 C.ar    
  18 C18            0.6931    -6.2177    -0.0398 C.ar    
  19 C19            0.8559    -4.8459    -0.0396 C.ar    
  20 H20           -0.9496     1.9255     0.0170 H       
  21 H21           -0.9220    -0.5630     0.0081 H       
  22 H22            3.9958     2.2877     1.0078 H       
  23 H23            4.4737     1.4263    -0.4726 H       
  24 H24            4.4811     3.9414    -0.6888 H       
  25 H25            3.4485     3.1087    -1.8696 H       
  26 H26            2.4918     5.0966    -0.3210 H       
  27 H27            1.7524    -2.5203    -0.9187 H       
  28 H28            1.7688    -2.5306     0.8612 H       
  29 H29           -2.3966    -3.9240     0.0017 H       
  30 H30           -2.6778    -6.3693    -0.0098 H       
  31 H31           -0.7022    -7.8370    -0.0368 H       
  32 H32            1.5585    -6.8637    -0.0507 H       
  33 H33            1.8481    -4.4194    -0.0459 H       
@<TRIPOS>BOND
   1    1    2 ar
   2    1    6 ar
   3    1   20 1
   4    2    3 ar
   5    2   21 1
   6    3    4 ar
   7    3   12 1
   8    4    5 ar
   9    5    6 ar
  10    5    7 1
  11    6   10 1
  12    7    8 1
  13    7   22 1
  14    7   23 1
  15    8    9 1
  16    8   24 1
  17    8   25 1
  18    9   10 am
  19    9   26 1
  20   10   11 2
  21   12   13 1
  22   12   27 1
  23   12   28 1
  24   13   14 1
  25   14   15 ar
  26   14   19 ar
  27   15   16 ar
  28   15   29 1
  29   16   17 ar
  30   16   30 1
  31   17   18 ar
  32   17   31 1
  33   18   19 ar
  34   18   32 1
  35   19   33 1

#	End of record

