#	Name: ASD08070136
#	Creating user name:	WinNT
#	Creation time:	15. 06. 2019 21:14

#	Modifying user name:	WinNT
#	Modification time:	15. 06. 2019 21:14

#	Program:	/corina/corina34_cracker 3.40 0067  02.08.2006

@<TRIPOS>MOLECULE
ASD08070136
  38   38    0    0    0
SMALL
NO_CHARGES


@<TRIPOS>ATOM
   1 C1            -0.0171     1.4123     0.0098 C.2     
   2 N2            -1.1558    -0.6938     0.0094 N.am    
   3 C3            -1.1360    -2.1586     0.0013 C.3     
   4 C4             0.0021    -0.0041     0.0020 C.2     
   5 O5             1.0647    -0.5985    -0.0113 O.2     
   6 C6            -0.9918    -2.6668     1.4127 C.2     
   7 C7            -2.4420    -2.6831    -0.5987 C.3     
   8 C8            -2.5290    -2.2714    -2.0697 C.3     
   9 C9             1.1448     2.1044     0.0024 C.2     
  10 C10            1.1249     3.5712     0.0105 C.2     
  11 C11           -0.0216     4.3079     0.0259 C.2     
  12 C12           -1.4150    -2.9616    -2.8592 C.3     
  13 O13           -0.9502    -3.9874     1.6496 O.3     
  14 C14           -0.8100    -4.4048     3.0332 C.3     
  15 C15           -3.8883    -2.6868    -2.6361 C.3     
  16 O16           -0.9137    -1.8855     2.3311 O.2     
  17 C17            2.3192     4.3852     0.0091 C.2     
  18 C18            2.0617     5.6873     0.0174 C.2     
  19 S19            0.3307     5.9755     0.0313 S.3     
  20 H20           -0.9597     1.9395     0.0171 H       
  21 H21           -2.0023    -0.2203     0.0200 H       
  22 H22           -0.2950    -2.5073    -0.5981 H       
  23 H23           -2.4656    -3.7702    -0.5237 H       
  24 H24           -3.2870    -2.2629    -0.0532 H       
  25 H25           -2.4163    -1.1903    -2.1517 H       
  26 H26            2.0873     1.5772    -0.0094 H       
  27 H27           -1.0181     3.8915     0.0331 H       
  28 H28           -1.5277    -4.0427    -2.7772 H       
  29 H29           -1.4770    -2.6683    -3.9072 H       
  30 H30           -0.4466    -2.6656    -2.4557 H       
  31 H31           -1.6533    -4.0297     3.6131 H       
  32 H32           -0.7898    -5.4934     3.0840 H       
  33 H33            0.1182    -4.0047     3.4412 H       
  34 H34           -4.6819    -2.1951    -2.0736 H       
  35 H35           -3.9502    -2.3935    -3.6840 H       
  36 H36           -4.0010    -3.7679    -2.5541 H       
  37 H37            3.3187     3.9759     0.0021 H       
  38 H38            2.8137     6.4625     0.0180 H       
@<TRIPOS>BOND
   1    1    4 1
   2    1    9 2
   3    1   20 1
   4    2    4 am
   5    2    3 1
   6    2   21 1
   7    3    6 1
   8    3    7 1
   9    3   22 1
  10    4    5 2
  11    6   13 1
  12    6   16 2
  13    7    8 1
  14    7   23 1
  15    7   24 1
  16    8   12 1
  17    8   15 1
  18    8   25 1
  19    9   10 1
  20    9   26 1
  21   10   11 2
  22   10   17 1
  23   11   19 1
  24   11   27 1
  25   12   28 1
  26   12   29 1
  27   12   30 1
  28   13   14 1
  29   14   31 1
  30   14   32 1
  31   14   33 1
  32   15   34 1
  33   15   35 1
  34   15   36 1
  35   17   18 2
  36   17   37 1
  37   18   19 1
  38   18   38 1

#	End of record

