#	Name: ASD01900163
#	Creating user name:	WinNT
#	Creation time:	15. 06. 2019 19:51

#	Modifying user name:	WinNT
#	Modification time:	15. 06. 2019 19:51

#	Program:	/corina/corina34_cracker 3.40 0067  02.08.2006

@<TRIPOS>MOLECULE
ASD01900163
  35   37    0    0    0
SMALL
NO_CHARGES


@<TRIPOS>ATOM
   1 C1             0.0377     1.3061     0.1277 C.ar    
   2 C2            -1.1240     1.6620    -0.5383 C.ar    
   3 C3            -1.1550     2.8401    -1.2685 C.ar    
   4 C4            -0.0136     3.6250    -1.3057 C.ar    
   5 C5             1.1193     3.2052    -0.6118 C.ar    
   6 N6             1.1073     2.0699     0.0756 N.ar    
   7 C7             2.3475     4.0328    -0.6416 C.2     
   8 N8             3.4466     3.6319     0.0276 N.am    
   9 O9             2.3641     5.0733    -1.2694 O.2     
  10 C10            4.6364     4.3615    -0.0799 C.ar    
  11 C11            4.5951     5.7458    -0.1827 C.ar    
  12 C12            5.7694     6.4657    -0.2884 C.ar    
  13 C13            6.9916     5.8040    -0.2916 C.ar    
  14 C14            7.0319     4.4197    -0.1888 C.ar    
  15 C15            5.8585     3.7011    -0.0779 C.ar    
  16 N16            8.1824     6.5332    -0.3992 N.am    
  17 C17            9.3127     5.9218    -0.8055 C.2     
  18 O18            9.2786     4.7625    -1.1742 O.2     
  19 Cl19           5.7184     8.1961    -0.4175 Cl      
  20 S20           10.8182     8.3272    -0.3044 S.3     
  21 C21           12.4879     8.2064    -0.6506 C.2     
  22 N22           12.7735     7.0217    -1.0866 N.2     
  23 C23           11.7900     6.1628    -1.1839 C.2     
  24 C24           10.5837     6.6535    -0.8032 C.2     
  25 H25            0.0640     0.3913     0.7011 H       
  26 H26           -1.9966     1.0277    -0.4894 H       
  27 H27           -2.0484     3.1391    -1.7965 H       
  28 H28           -0.0023     4.5489    -1.8649 H       
  29 H29            3.4131     2.8379     0.5837 H       
  30 H30            3.6450     6.2595    -0.1805 H       
  31 H31            7.9817     3.9055    -0.1913 H       
  32 H32            5.8903     2.6246     0.0021 H       
  33 H33            8.1937     7.4784    -0.1812 H       
  34 H34           13.2032     9.0054    -0.5233 H       
  35 H35           11.9269     5.1515    -1.5373 H       
@<TRIPOS>BOND
   1    1    2 ar
   2    1    6 ar
   3    1   25 1
   4    2    3 ar
   5    2   26 1
   6    3    4 ar
   7    3   27 1
   8    4    5 ar
   9    4   28 1
  10    5    6 ar
  11    5    7 1
  12    7    8 am
  13    7    9 2
  14    8   10 1
  15    8   29 1
  16   10   11 ar
  17   10   15 ar
  18   11   12 ar
  19   11   30 1
  20   12   13 ar
  21   12   19 1
  22   13   14 ar
  23   13   16 1
  24   14   15 ar
  25   14   31 1
  26   15   32 1
  27   16   17 am
  28   16   33 1
  29   17   18 2
  30   17   24 1
  31   20   21 1
  32   20   24 1
  33   21   22 2
  34   21   34 1
  35   22   23 1
  36   23   24 2
  37   23   35 1

#	End of record

