#	Name: ASD01901079
#	Creating user name:	WinNT
#	Creation time:	15. 06. 2019 19:53

#	Modifying user name:	WinNT
#	Modification time:	15. 06. 2019 19:53

#	Program:	/corina/corina34_cracker 3.40 0067  02.08.2006

@<TRIPOS>MOLECULE
ASD01901079
  39   41    0    0    0
SMALL
NO_CHARGES


@<TRIPOS>ATOM
   1 C1            -0.0184     1.5028     0.0103 C.2     
   2 C2             0.0021    -0.0041     0.0020 C.3     
   3 C3             2.4697     1.5816    -0.0130 C.ar    
   4 C4             1.2427     2.2539     0.0023 C.ar    
   5 C5             1.2360     3.6600     0.0094 C.ar    
   6 C6             2.4352     4.3178     0.0011 C.ar    
   7 C7             3.6197     3.5821    -0.0141 C.ar    
   8 N8             3.5998     2.2555    -0.0211 N.ar    
   9 N9             4.8336     4.2453    -0.0226 N.3     
  10 C10            5.9572     3.2907    -0.0384 C.3     
  11 C11            6.8169     3.6169    -1.2777 C.3     
  12 C12            6.4508     5.0943    -1.5780 C.3     
  13 C13            4.9478     5.1263    -1.2044 C.3     
  14 O14           -1.3386    -0.4987     0.0122 O.3     
  15 C15           -1.4983    -1.8484     0.0064 C.ar    
  16 C16           -2.7733    -2.3978     0.0157 C.ar    
  17 C17           -2.9327    -3.7705     0.0099 C.ar    
  18 C18           -1.8235    -4.5962    -0.0051 C.ar    
  19 C19           -0.5531    -4.0513    -0.0139 C.ar    
  20 C20           -0.3882    -2.6792    -0.0144 C.ar    
  21 Br21          -4.2902    -1.2689     0.0368 Br      
  22 O22           -1.0770     2.0949     0.0185 O.2     
  23 H23            0.5123    -0.3556    -0.8948 H       
  24 H24            0.5293    -0.3651     0.8851 H       
  25 H25            2.4894     0.5018    -0.0141 H       
  26 H26            0.3054     4.2080     0.0209 H       
  27 H27            2.4645     5.3974     0.0059 H       
  28 H28            6.5534     3.4048     0.8670 H       
  29 H29            5.5769     2.2716    -0.1086 H       
  30 H30            7.8779     3.5221    -1.0465 H       
  31 H31            6.5450     2.9746    -2.1152 H       
  32 H32            7.0243     5.7744    -0.9482 H       
  33 H33            6.5959     5.3258    -2.6332 H       
  34 H34            4.3444     4.7397    -2.0257 H       
  35 H35            4.6411     6.1414    -0.9521 H       
  36 H36           -3.9241    -4.1987     0.0174 H       
  37 H37           -1.9500    -5.6688    -0.0096 H       
  38 H38            0.3114    -4.6985    -0.0252 H       
  39 H39            0.6046    -2.2543    -0.0264 H       
@<TRIPOS>BOND
   1    1    2 1
   2    1    4 1
   3    1   22 2
   4    2   14 1
   5    2   23 1
   6    2   24 1
   7    3    4 ar
   8    3    8 ar
   9    3   25 1
  10    4    5 ar
  11    5    6 ar
  12    5   26 1
  13    6    7 ar
  14    6   27 1
  15    7    8 ar
  16    7    9 1
  17    9   10 1
  18    9   13 1
  19   10   11 1
  20   10   28 1
  21   10   29 1
  22   11   12 1
  23   11   30 1
  24   11   31 1
  25   12   13 1
  26   12   32 1
  27   12   33 1
  28   13   34 1
  29   13   35 1
  30   14   15 1
  31   15   16 ar
  32   15   20 ar
  33   16   17 ar
  34   16   21 1
  35   17   18 ar
  36   17   36 1
  37   18   19 ar
  38   18   37 1
  39   19   20 ar
  40   19   38 1
  41   20   39 1

#	End of record

