#	Name: ASD03090058
#	Creating user name:	WinNT
#	Creation time:	15. 06. 2019 20:28

#	Modifying user name:	WinNT
#	Modification time:	15. 06. 2019 20:28

#	Program:	/corina/corina34_cracker 3.40 0067  02.08.2006

@<TRIPOS>MOLECULE
ASD03090058
  41   43    0    0    0
SMALL
NO_CHARGES


@<TRIPOS>ATOM
   1 N1            -0.1220     1.3202    -0.4838 N.am    
   2 C2             0.0332    -0.0137    -0.3701 C.2     
   3 O3             1.0209    -0.5523    -0.8314 O.2     
   4 N4            -0.9064    -0.7507     0.2548 N.am    
   5 C5            -0.7931    -2.1435     0.2901 C.ar    
   6 C6            -1.9422    -2.9440     0.2294 C.ar    
   7 C7            -1.8192    -4.3333     0.2653 C.ar    
   8 C8            -0.5655    -4.9119     0.3605 C.ar    
   9 C9             0.5691    -4.1137     0.4203 C.ar    
  10 C10            0.4567    -2.7374     0.3795 C.ar    
  11 O11           -4.4528    -2.9699     0.1693 O.3     
  12 C12           -3.2767    -2.3198     0.1285 C.2     
  13 N13           -3.5141    -1.0367    -0.0163 N.2     
  14 C14           -4.8419    -0.8495    -0.0698 C.2     
  15 C15           -5.4328    -2.0522     0.0455 C.2     
  16 O16           -0.4447    -6.2658     0.3960 O.3     
  17 C17            0.8784    -6.7967     0.4948 C.3     
  18 C18            0.8139    -8.3251     0.5216 C.3     
  19 C19            1.1456     3.3794    -0.5705 C.ar    
  20 C20            0.8927     2.0953    -1.0473 C.ar    
  21 C21            1.6648     1.5933    -2.0932 C.ar    
  22 C22            2.6598     2.3952    -2.6214 C.ar    
  23 C23            2.8559     3.6718    -2.0928 C.ar    
  24 N24            2.0992     4.1162    -1.0948 N.ar    
  25 C25            3.8831     4.5117    -2.6314 C.1     
  26 N26            4.6980     5.1779    -3.0587 N.1     
  27 H27           -0.9405     1.7411    -0.1775 H       
  28 H28           -1.6613    -0.3145     0.6801 H       
  29 H29           -2.7004    -4.9559     0.2193 H       
  30 H30            1.5446    -4.5712     0.4948 H       
  31 H31            1.3437    -2.1227     0.4219 H       
  32 H32           -5.3464     0.0985    -0.1844 H       
  33 H33           -6.4951    -2.2468     0.0399 H       
  34 H34            1.4650    -6.4727    -0.3648 H       
  35 H35            1.3468    -6.4367     1.4108 H       
  36 H36            0.2273    -8.6491     1.3812 H       
  37 H37            0.3455    -8.6851    -0.3944 H       
  38 H38            1.8231    -8.7300     0.5969 H       
  39 H39            0.5479     3.7761     0.2368 H       
  40 H40            1.4904     0.6009    -2.4819 H       
  41 H41            3.2773     2.0381    -3.4323 H       
@<TRIPOS>BOND
   1    1    2 am
   2    1   20 1
   3    1   27 1
   4    2    3 2
   5    2    4 am
   6    4    5 1
   7    4   28 1
   8    5    6 ar
   9    5   10 ar
  10    6    7 ar
  11    6   12 1
  12    7    8 ar
  13    7   29 1
  14    8    9 ar
  15    8   16 1
  16    9   10 ar
  17    9   30 1
  18   10   31 1
  19   11   12 1
  20   11   15 1
  21   12   13 2
  22   13   14 1
  23   14   15 2
  24   14   32 1
  25   15   33 1
  26   16   17 1
  27   17   18 1
  28   17   34 1
  29   17   35 1
  30   18   36 1
  31   18   37 1
  32   18   38 1
  33   19   20 ar
  34   19   24 ar
  35   19   39 1
  36   20   21 ar
  37   21   22 ar
  38   21   40 1
  39   22   23 ar
  40   22   41 1
  41   23   24 ar
  42   23   25 1
  43   25   26 3

#	End of record

