#	Name: ASD03430525
#	Creating user name:	WinNT
#	Creation time:	15. 06. 2019 20:41

#	Modifying user name:	WinNT
#	Modification time:	15. 06. 2019 20:41

#	Program:	/corina/corina34_cracker 3.40 0067  02.08.2006

@<TRIPOS>MOLECULE
ASD03430525
  46   51    0    0    0
SMALL
NO_CHARGES


@<TRIPOS>ATOM
   1 O1            -0.0161     1.3364     0.0094 O.3     
   2 C2             0.0021    -0.0041     0.0020 C.2     
   3 N3             1.2342    -0.4159    -0.0120 N.2     
   4 C4             2.0525     0.6717    -0.0139 C.2     
   5 C5             1.2529     1.7738    -0.0004 C.2     
   6 C6             3.5251     0.6589    -0.0273 C.2     
   7 O7             4.1419     1.7061    -0.0277 O.2     
   8 O8             4.1887    -0.5141    -0.0392 O.3     
   9 C9            -1.2148    -0.8930     0.0096 C.3     
  10 O10           -4.0627    -1.2577     5.2231 O.3     
  11 C11           -3.1429    -0.3156     5.5769 C.ar    
  12 C12           -2.1835    -0.1501     4.5807 C.ar    
  13 C13           -2.5574    -1.0867     3.4641 C.3     
  14 C14           -4.0049    -1.4719     3.8000 C.3     
  15 O15           -1.7592     2.1971     7.9475 O.3     
  16 C16           -2.0205     1.3609     6.9047 C.ar    
  17 C17           -1.0690     1.4979     5.9017 C.ar    
  18 C18           -0.0723     2.5390     6.3720 C.3     
  19 C19           -0.3873     2.6215     7.8844 C.3     
  20 C20           -1.1528     0.7497     4.7476 C.ar    
  21 C21           -3.0540     0.4467     6.7349 C.ar    
  22 N22           -1.5954    -1.1880     1.3932 N.am    
  23 C23           -2.4509    -0.4367     2.1148 C.2     
  24 C24           -1.6603    -2.2870     3.3992 C.ar    
  25 C25           -1.3298    -3.2773     4.2971 C.ar    
  26 C26           -0.4485    -4.2788     3.9308 C.ar    
  27 C27            0.1001    -4.2827     2.6612 C.ar    
  28 C28           -0.2277    -3.2928     1.7583 C.ar    
  29 C29           -1.1146    -2.2811     2.1181 C.ar    
  30 O30           -3.0230     0.5672     1.7461 O.2     
  31 H31            1.5778     2.8038     0.0017 H       
  32 H32            5.1548    -0.4718    -0.0477 H       
  33 H33           -2.0382    -0.3861    -0.4935 H       
  34 H34           -0.9883    -1.8234    -0.5111 H       
  35 H35           -4.1932    -2.5179     3.5581 H       
  36 H36           -4.7089    -0.8208     3.2817 H       
  37 H37            0.9509     2.2023     6.2049 H       
  38 H38           -0.2503     3.4972     5.8841 H       
  39 H39           -0.2825     3.6446     8.2454 H       
  40 H40            0.2528     1.9441     8.4497 H       
  41 H41           -0.4098     0.8683     3.9729 H       
  42 H42           -3.7956     0.3282     7.5110 H       
  43 H43           -1.7592    -3.2723     5.2880 H       
  44 H44           -0.1892    -5.0557     4.6348 H       
  45 H45            0.7882    -5.0645     2.3753 H       
  46 H46            0.2055    -3.3020     0.7690 H       
@<TRIPOS>BOND
   1    1    2 1
   2    1    5 1
   3    2    3 2
   4    2    9 1
   5    3    4 1
   6    4    5 2
   7    4    6 1
   8    5   31 1
   9    6    7 2
  10    6    8 1
  11    8   32 1
  12    9   22 1
  13    9   33 1
  14    9   34 1
  15   10   11 1
  16   10   14 1
  17   11   12 ar
  18   11   21 ar
  19   12   13 1
  20   12   20 ar
  21   13   14 1
  22   13   23 1
  23   13   24 1
  24   14   35 1
  25   14   36 1
  26   15   16 1
  27   15   19 1
  28   16   17 ar
  29   16   21 ar
  30   17   18 1
  31   17   20 ar
  32   18   19 1
  33   18   37 1
  34   18   38 1
  35   19   39 1
  36   19   40 1
  37   20   41 1
  38   21   42 1
  39   22   23 am
  40   22   29 1
  41   23   30 2
  42   24   25 ar
  43   24   29 ar
  44   25   26 ar
  45   25   43 1
  46   26   27 ar
  47   26   44 1
  48   27   28 ar
  49   27   45 1
  50   28   29 ar
  51   28   46 1

#	End of record

