#	Name: ASD02500232
#	Creating user name:	WinNT
#	Creation time:	15. 06. 2019 20:22

#	Modifying user name:	WinNT
#	Modification time:	15. 06. 2019 20:22

#	Program:	/corina/corina34_cracker 3.40 0067  02.08.2006

@<TRIPOS>MOLECULE
ASD02500232
  60   64    0    0    0
SMALL
NO_CHARGES


@<TRIPOS>ATOM
   1 N1            -4.1291     5.4517    -0.0690 N.ar    
   2 C2            -5.2539     6.0201    -0.4296 C.ar    
   3 C3            -6.4401     5.8076     0.2700 C.ar    
   4 C4            -6.4497     4.9882     1.3625 C.ar    
   5 C5            -5.2399     4.3791     1.7465 C.ar    
   6 C6            -5.1721     3.5250     2.8587 C.ar    
   7 C7            -3.9828     2.9554     3.1981 C.ar    
   8 C8            -2.8311     3.2092     2.4564 C.ar    
   9 C9            -2.8608     4.0319     1.3726 C.ar    
  10 C10           -4.0698     4.6388     0.9906 C.ar    
  11 S11           -1.3892     4.3361     0.4526 S.o2    
  12 O12           -1.2360     5.7477     0.3958 O.2     
  13 O13           -0.3976     3.4675     0.9830 O.2     
  14 N14           -1.6691     3.8333    -1.1002 N.am    
  15 C15           -1.8528     2.4794    -1.3715 C.ar    
  16 C16           -1.3691     1.9354    -2.5633 C.ar    
  17 C17           -1.5506     0.5943    -2.8327 C.ar    
  18 C18           -2.2192    -0.2171    -1.9105 C.ar    
  19 C19           -2.7008     0.3328    -0.7199 C.ar    
  20 C20           -2.5121     1.6710    -0.4530 C.ar    
  21 C21           -2.4159    -1.6513    -2.1947 C.2     
  22 O22           -2.2190    -2.4764    -1.3234 O.2     
  23 N23           -2.8140    -2.0471    -3.4200 N.am    
  24 C24           -3.1510    -3.4540    -3.6788 C.3     
  25 C25           -4.5708    -3.5198    -4.2551 C.3     
  26 N26           -4.6760    -2.5521    -5.3562 N.am    
  27 C27           -4.3390    -1.1452    -5.0974 C.3     
  28 C28           -2.9246    -1.0784    -4.5197 C.3     
  29 C29           -5.3787    -1.9392    -7.6232 C.ar    
  30 C30           -5.6272    -2.3502    -8.9309 C.ar    
  31 C31           -5.9164    -1.3956    -9.8931 C.ar    
  32 C32           -5.9471    -0.0626    -9.5137 C.ar    
  33 C33           -5.6899     0.2742    -8.1946 C.ar    
  34 N34           -5.4180    -0.6523    -7.3015 N.ar    
  35 C35           -5.0741    -2.9479    -6.5815 C.2     
  36 O36           -5.1831    -4.1320    -6.8319 O.2     
  37 O37           -0.7197     2.7273    -3.4584 O.3     
  38 H38           -5.2614     6.6707    -1.2916 H       
  39 H39           -7.3510     6.2908    -0.0512 H       
  40 H40           -7.3599     4.8126     1.9166 H       
  41 H41           -6.0580     3.3212     3.4418 H       
  42 H42           -3.9315     2.2985     4.0538 H       
  43 H43           -1.8996     2.7458     2.7463 H       
  44 H44           -1.7052     4.4816    -1.8209 H       
  45 H45           -1.1775     0.1722    -3.7541 H       
  46 H46           -3.2174    -0.2924    -0.0067 H       
  47 H47           -2.8811     2.0937     0.4698 H       
  48 H48           -2.4453    -3.8732    -4.3960 H       
  49 H49           -3.1079    -4.0179    -2.7470 H       
  50 H50           -4.7670    -4.5240    -4.6306 H       
  51 H51           -5.2930    -3.2696    -3.4779 H       
  52 H52           -4.3821    -0.5814    -6.0292 H       
  53 H53           -5.0447    -0.7260    -4.3802 H       
  54 H54           -2.7319    -0.0739    -4.1431 H       
  55 H55           -2.2024    -1.3247    -5.2981 H       
  56 H56           -5.5945    -3.3978    -9.1913 H       
  57 H57           -6.1130    -1.6836   -10.9152 H       
  58 H58           -6.1689     0.7059   -10.2394 H       
  59 H59           -5.7130     1.3118    -7.8956 H       
  60 H60            0.2365     2.7732    -3.3217 H       
@<TRIPOS>BOND
   1    1    2 ar
   2    1   10 ar
   3    2    3 ar
   4    2   38 1
   5    3    4 ar
   6    3   39 1
   7    4    5 ar
   8    4   40 1
   9    5    6 ar
  10    5   10 ar
  11    6    7 ar
  12    6   41 1
  13    7    8 ar
  14    7   42 1
  15    8    9 ar
  16    8   43 1
  17    9   10 ar
  18    9   11 1
  19   11   12 2
  20   11   13 2
  21   11   14 am
  22   14   15 1
  23   14   44 1
  24   15   16 ar
  25   15   20 ar
  26   16   17 ar
  27   16   37 1
  28   17   18 ar
  29   17   45 1
  30   18   19 ar
  31   18   21 1
  32   19   20 ar
  33   19   46 1
  34   20   47 1
  35   21   22 2
  36   21   23 am
  37   23   24 1
  38   23   28 1
  39   24   25 1
  40   24   48 1
  41   24   49 1
  42   25   26 1
  43   25   50 1
  44   25   51 1
  45   26   27 1
  46   26   35 am
  47   27   28 1
  48   27   52 1
  49   27   53 1
  50   28   54 1
  51   28   55 1
  52   29   30 ar
  53   29   34 ar
  54   29   35 1
  55   30   31 ar
  56   30   56 1
  57   31   32 ar
  58   31   57 1
  59   32   33 ar
  60   32   58 1
  61   33   34 ar
  62   33   59 1
  63   35   36 2
  64   37   60 1

#	End of record

