#	Name: ASD02198699
#	Creating user name:	WinNT
#	Creation time:	15. 06. 2019 20:20

#	Modifying user name:	WinNT
#	Modification time:	15. 06. 2019 20:20

#	Program:	/corina/corina34_cracker 3.40 0067  02.08.2006

@<TRIPOS>MOLECULE
ASD02198699
  49   53    0    0    0
SMALL
NO_CHARGES


@<TRIPOS>ATOM
   1 F1             2.2534    -1.7080     2.4718 F       
   2 C2            -0.0433     1.5017    -0.1150 C.2     
   3 C3            -0.0730     0.1620     0.0975 C.2     
   4 N4             1.0714    -0.5396     0.2603 N.pl3   
   5 N5             2.2359    -0.0048     0.2263 N.2     
   6 C6             2.4074     1.2846     0.0277 C.2     
   7 C7             1.2216     2.1357    -0.1605 C.2     
   8 C8             0.9800    -1.9179     0.4772 C.ar    
   9 C9             1.5813    -2.4871     1.5964 C.ar    
  10 C10            1.4910    -3.8482     1.8115 C.ar    
  11 C11            0.7976    -4.6505     0.9072 C.ar    
  12 C12            0.1965    -4.0773    -0.2127 C.ar    
  13 C13            0.2840    -2.7175    -0.4218 C.ar    
  14 C14            3.7643     1.8669    -0.0050 C.2     
  15 N15            4.3063     2.6067    -1.0182 N.pl3   
  16 N16            5.6083     2.9581    -0.6406 N.2     
  17 C17            5.8522     2.4586     0.5448 C.2     
  18 C18            4.7200     1.7716     0.9828 C.2     
  19 C19            3.6733     2.9513    -2.2192 C.ar    
  20 C20            3.8073     4.2344    -2.7331 C.ar    
  21 C21            3.1822     4.5709    -3.9178 C.ar    
  22 C22            2.4236     3.6317    -4.5921 C.ar    
  23 C23            2.2879     2.3533    -4.0827 C.ar    
  24 C24            2.9151     2.0089    -2.9014 C.ar    
  25 O25            1.3245     3.3388    -0.3487 O.2     
  26 C26            0.6995    -6.1131     1.1357 C.2     
  27 C27            0.0637    -7.0150     0.3398 C.2     
  28 C28            1.2562    -6.8358     2.2218 C.2     
  29 C29            0.9354    -8.1315     2.0480 C.2     
  30 N30            0.2070    -8.2476     0.9003 N.pl3   
  31 C31           -0.3332    -9.4968     0.3582 C.3     
  32 H32           -0.9547     2.0653    -0.2495 H       
  33 H33           -1.0228    -0.3505     0.1375 H       
  34 H34            1.9575    -4.2904     2.6793 H       
  35 H35           -0.3410    -4.6980    -0.9142 H       
  36 H36           -0.1821    -2.2740    -1.2893 H       
  37 H37            6.7757     2.5648     1.0946 H       
  38 H38            4.6142     1.2522     1.9238 H       
  39 H39            4.3993     4.9684    -2.2068 H       
  40 H40            3.2857     5.5688    -4.3179 H       
  41 H41            1.9358     3.8973    -5.5184 H       
  42 H42            1.6944     1.6221    -4.6115 H       
  43 H43            2.8090     1.0102    -2.5043 H       
  44 H44           -0.4631    -6.7921    -0.5763 H       
  45 H45            1.8312    -6.4228     3.0375 H       
  46 H46            1.2112    -8.9432     2.7049 H       
  47 H47           -1.3328    -9.6646     0.7592 H       
  48 H48           -0.3843    -9.4292    -0.7285 H       
  49 H49            0.3155   -10.3260     0.6406 H       
@<TRIPOS>BOND
   1    1    9 1
   2    2    3 2
   3    2    7 1
   4    2   32 1
   5    3    4 1
   6    3   33 1
   7    4    5 1
   8    4    8 1
   9    5    6 2
  10    6    7 1
  11    6   14 1
  12    7   25 2
  13    8    9 ar
  14    8   13 ar
  15    9   10 ar
  16   10   11 ar
  17   10   34 1
  18   11   12 ar
  19   11   26 1
  20   12   13 ar
  21   12   35 1
  22   13   36 1
  23   14   15 1
  24   14   18 2
  25   15   16 1
  26   15   19 1
  27   16   17 2
  28   17   18 1
  29   17   37 1
  30   18   38 1
  31   19   20 ar
  32   19   24 ar
  33   20   21 ar
  34   20   39 1
  35   21   22 ar
  36   21   40 1
  37   22   23 ar
  38   22   41 1
  39   23   24 ar
  40   23   42 1
  41   24   43 1
  42   26   28 1
  43   26   27 2
  44   27   30 1
  45   27   44 1
  46   28   29 2
  47   28   45 1
  48   29   30 1
  49   29   46 1
  50   30   31 1
  51   31   47 1
  52   31   48 1
  53   31   49 1

#	End of record

