#	Name: ASD00311040
#	Creating user name:	WinNT
#	Creation time:	15. 06. 2019 18:34

#	Modifying user name:	WinNT
#	Modification time:	15. 06. 2019 18:34

#	Program:	/corina/corina34_cracker 3.40 0067  02.08.2006

@<TRIPOS>MOLECULE
ASD00311040
  32   34    0    0    0
SMALL
NO_CHARGES


@<TRIPOS>ATOM
   1 C1            -0.0158     1.3142     0.0093 C.ar    
   2 N2             0.0021    -0.0041     0.0020 N.ar    
   3 C3             1.1288    -0.6885    -0.0125 C.ar    
   4 C4             2.3501    -0.0439    -0.0203 C.ar    
   5 C5             2.3788     1.3545    -0.0130 C.ar    
   6 C6             1.1594     2.0394     0.0019 C.ar    
   7 C7             3.6714     3.5068    -0.0134 C.2     
   8 C8             3.6652     2.0898    -0.0209 C.2     
   9 C9             3.6593     6.3624     0.0020 C.ar    
  10 C10            4.8537     5.6452    -0.0128 C.ar    
  11 C11            4.8473     4.1789    -0.0206 C.2     
  12 C12            3.6731     7.7495     0.0089 C.ar    
  13 C13            4.8356     8.4582     0.0015 C.ar    
  14 C14            6.0796     7.8019    -0.0135 C.ar    
  15 C15            6.1136     6.3870    -0.0209 C.ar    
  16 O16            4.7166     1.4767    -0.0339 O.2     
  17 N17            7.2244     8.4921    -0.0204 N.ar    
  18 C18            7.3523     5.7307    -0.0354 C.ar    
  19 C19            8.4867     6.4954    -0.0418 C.ar    
  20 C20            8.3861     7.8846    -0.0339 C.ar    
  21 H21           -0.9624     1.8340     0.0166 H       
  22 H22            1.0962    -1.7680    -0.0179 H       
  23 H23            3.2692    -0.6110    -0.0314 H       
  24 H24            1.1373     3.1192     0.0076 H       
  25 H25            2.7385     4.0508    -0.0019 H       
  26 H26            2.7168     5.8352     0.0037 H       
  27 H27            5.7802     3.6348    -0.0321 H       
  28 H28            2.7341     8.2829     0.0201 H       
  29 H29            4.8021     9.5377     0.0073 H       
  30 H30            7.4094     4.6522    -0.0410 H       
  31 H31            9.4579     6.0230    -0.0526 H       
  32 H32            9.2890     8.4770    -0.0391 H       
@<TRIPOS>BOND
   1    1    2 ar
   2    1    6 ar
   3    1   21 1
   4    2    3 ar
   5    3    4 ar
   6    3   22 1
   7    4    5 ar
   8    4   23 1
   9    5    6 ar
  10    5    8 1
  11    6   24 1
  12    7    8 1
  13    7   11 2
  14    7   25 1
  15    8   16 2
  16    9   10 ar
  17    9   12 ar
  18    9   26 1
  19   10   11 1
  20   10   15 ar
  21   11   27 1
  22   12   13 ar
  23   12   28 1
  24   13   14 ar
  25   13   29 1
  26   14   15 ar
  27   14   17 ar
  28   15   18 ar
  29   17   20 ar
  30   18   19 ar
  31   18   30 1
  32   19   20 ar
  33   19   31 1
  34   20   32 1

#	End of record

