#	Name: ASD02560199
#	Creating user name:	WinNT
#	Creation time:	15. 06. 2019 20:24

#	Modifying user name:	WinNT
#	Modification time:	15. 06. 2019 20:24

#	Program:	/corina/corina34_cracker 3.40 0067  02.08.2006

@<TRIPOS>MOLECULE
ASD02560199
  69   72    0    0    0
SMALL
NO_CHARGES


@<TRIPOS>ATOM
   1 O1            -0.3851     1.4375    -1.1011 O.3     
   2 Br2           14.0742    11.4167     0.6336 Br      
   3 N3            13.4738     8.6934     0.1274 N.2     
   4 N4            12.9292     8.1137     1.0720 N.2     
   5 C5            12.8894    10.0235    -0.0879 C.3     
   6 N6            11.6063     9.9984     0.6587 N.3     
   7 C7            11.8762     8.9450     1.6697 C.3     
   8 S8            10.3840     7.9572     1.9667 S.3     
   9 C9            10.0225     7.2620     0.3307 C.3     
  10 C10            8.7882     6.4012     0.4122 C.2     
  11 O11            8.2094     6.2697     1.4699 O.2     
  12 N12            8.3276     5.7775    -0.6901 N.am    
  13 C13           11.3603    11.2258     1.2701 C.ar    
  14 C14            7.2373     4.9124    -0.5978 C.ar    
  15 C15            7.1113     3.8550    -1.4952 C.ar    
  16 C16            6.0356     2.9992    -1.4062 C.ar    
  17 C17            5.0706     3.1935    -0.4139 C.ar    
  18 C18            5.2006     4.2555     0.4845 C.ar    
  19 C19            6.2813     5.1042     0.3939 C.ar    
  20 Cl20           8.3105     3.6157    -2.7273 Cl      
  21 C21            3.9163     2.2788    -0.3158 C.2     
  22 C22           11.2383    12.3972     0.4922 C.ar    
  23 C23           11.2282    11.3065     2.6403 C.ar    
  24 C24           10.9825    12.5275     3.2606 C.ar    
  25 C25           10.8654    13.6739     2.5349 C.ar    
  26 C26           10.9882    13.6343     1.1357 C.ar    
  27 C27           11.3605    12.3594    -0.9055 C.ar    
  28 C28           10.8725    14.8019     0.3614 C.ar    
  29 C29           10.9973    14.7277    -0.9919 C.ar    
  30 C30           11.2375    13.5093    -1.6242 C.ar    
  31 C31           10.5986    14.9833     3.2316 C.3     
  32 N32            3.2554     1.9059    -1.4296 N.am    
  33 O33            3.5617     1.8618     0.7699 O.2     
  34 C34            2.0480     1.0829    -1.3239 C.3     
  35 C35            0.8396     1.9760    -1.2098 C.2     
  36 C36           -1.5030     2.3581    -0.9951 C.3     
  37 C37           -2.8069     1.5659    -0.8805 C.3     
  38 O38            0.9732     3.1769    -1.2160 O.2     
  39 C39            3.7442     2.3236    -2.7459 C.3     
  40 C40            9.0944    15.2630     3.2331 C.3     
  41 H41           12.7077    10.1910    -1.1495 H       
  42 H42           12.2277     9.3923     2.5994 H       
  43 H43            9.8544     8.0718    -0.3792 H       
  44 H44           10.8661     6.6569    -0.0014 H       
  45 H45            8.7542     5.9302    -1.5478 H       
  46 H46            5.9378     2.1794    -2.1025 H       
  47 H47            4.4565     4.4081     1.2522 H       
  48 H48            6.3822     5.9250     1.0886 H       
  49 H49           11.3161    10.4118     3.2387 H       
  50 H50           10.8826    12.5667     4.3352 H       
  51 H51           11.5514    11.4229    -1.4084 H       
  52 H52           10.6852    15.7528     0.8378 H       
  53 H53           10.9080    15.6261    -1.5844 H       
  54 H54           11.3329    13.4776    -2.6995 H       
  55 H55           10.9590    14.9283     4.2589 H       
  56 H56           11.1170    15.7860     2.7073 H       
  57 H57            1.9554     0.4580    -2.2122 H       
  58 H58            2.1164     0.4493    -0.4396 H       
  59 H59           -1.3776     2.9815    -0.1098 H       
  60 H60           -1.5386     2.9901    -1.8824 H       
  61 H61           -3.6461     2.2570    -0.8009 H       
  62 H62           -2.9323     0.9426    -1.7658 H       
  63 H63           -2.7713     0.9339     0.0068 H       
  64 H64            4.4016     1.5540    -3.1504 H       
  65 H65            2.8986     2.4693    -3.4181 H       
  66 H66            4.2963     3.2585    -2.6486 H       
  67 H67            8.9015    16.2100     3.7370 H       
  68 H68            8.7341    15.3180     2.2059 H       
  69 H69            8.5761    14.4602     3.7575 H       
@<TRIPOS>BOND
   1    1   36 1
   2    1   35 1
   3    2    5 1
   4    3    4 2
   5    3    5 1
   6    4    7 1
   7    5    6 1
   8    5   41 1
   9    6    7 1
  10    6   13 1
  11    7    8 1
  12    7   42 1
  13    8    9 1
  14    9   10 1
  15    9   43 1
  16    9   44 1
  17   10   11 2
  18   10   12 am
  19   12   14 1
  20   12   45 1
  21   13   22 ar
  22   13   23 ar
  23   14   15 ar
  24   14   19 ar
  25   15   16 ar
  26   15   20 1
  27   16   17 ar
  28   16   46 1
  29   17   18 ar
  30   17   21 1
  31   18   19 ar
  32   18   47 1
  33   19   48 1
  34   21   32 am
  35   21   33 2
  36   22   26 ar
  37   22   27 ar
  38   23   24 ar
  39   23   49 1
  40   24   25 ar
  41   24   50 1
  42   25   26 ar
  43   25   31 1
  44   26   28 ar
  45   27   30 ar
  46   27   51 1
  47   28   29 ar
  48   28   52 1
  49   29   30 ar
  50   29   53 1
  51   30   54 1
  52   31   40 1
  53   31   55 1
  54   31   56 1
  55   32   34 1
  56   32   39 1
  57   34   35 1
  58   34   57 1
  59   34   58 1
  60   35   38 2
  61   36   37 1
  62   36   59 1
  63   36   60 1
  64   37   61 1
  65   37   62 1
  66   37   63 1
  67   39   64 1
  68   39   65 1
  69   39   66 1
  70   40   67 1
  71   40   68 1
  72   40   69 1

#	End of record

