#	Name: ASD07930563
#	Creating user name:	WinNT
#	Creation time:	15. 06. 2019 21:12

#	Modifying user name:	WinNT
#	Modification time:	15. 06. 2019 21:12

#	Program:	/corina/corina34_cracker 3.40 0067  02.08.2006

@<TRIPOS>MOLECULE
ASD07930563
  49   51    0    0    0
SMALL
NO_CHARGES


@<TRIPOS>ATOM
   1 C1            -0.0342     1.4581     0.0424 C.3     
   2 N2             0.7953    -0.4134    -2.1302 N.2     
   3 N3            -0.8904    -1.7835    -1.2685 N.pl3   
   4 C4            -0.9150    -2.8271    -0.2383 C.3     
   5 C5            -1.2300    -2.1885     1.1215 C.3     
   6 S6             0.0062    -0.8913     1.4434 S.o2    
   7 N7            -0.0140    -0.0067     0.0315 N.am    
   8 C8            -0.0112    -0.7260    -1.1552 C.2     
   9 C9             0.4500    -3.5154    -0.1755 C.3     
  10 C10           -1.9765    -3.8423    -0.5755 C.ar    
  11 C11           -2.8068    -3.6379    -1.6599 C.ar    
  12 C12           -3.7849    -4.5737    -1.9711 C.ar    
  13 C13           -3.9260    -5.7135    -1.1909 C.ar    
  14 C14           -3.0930    -5.9145    -0.1063 C.ar    
  15 C15           -2.1146    -4.9819     0.1988 C.ar    
  16 O16           -0.4576     0.0117     2.4377 O.2     
  17 O17            1.3140    -1.4440     1.5003 O.2     
  18 F18           -1.3011    -5.1797     1.2591 F       
  19 N19           -4.6274    -4.3678    -3.0693 N.am    
  20 C20           -5.0471    -5.4176    -3.8028 C.2     
  21 O21           -4.6179    -6.5312    -3.5715 O.2     
  22 C22           -6.0299    -5.2149    -4.8892 C.ar    
  23 C23           -6.4593    -6.3062    -5.6437 C.ar    
  24 C24           -7.3726    -3.7706    -6.0869 C.ar    
  25 N25           -6.4986    -3.9961    -5.1326 N.ar    
  26 C26           -7.3794    -6.1043    -6.6571 C.ar    
  27 C27           -7.8424    -4.8114    -6.8843 C.ar    
  28 O28           -8.7453    -4.5687    -7.8681 O.3     
  29 Cl29          -3.2682    -7.3392     0.8701 Cl      
  30 C30           -9.1713    -3.2153    -8.0382 C.3     
  31 H31            0.9883     1.8356     0.0393 H       
  32 H32           -0.5581     1.8208    -0.8420 H       
  33 H33           -0.5479     1.8077     0.9379 H       
  34 H34            1.4071     0.3330    -2.0332 H       
  35 H35           -1.4883    -1.8387    -2.0303 H       
  36 H36           -2.2270    -1.7484     1.0986 H       
  37 H37           -1.1800    -2.9460     1.9037 H       
  38 H38            1.2165    -2.7805     0.0704 H       
  39 H39            0.4311    -4.2908     0.5903 H       
  40 H40            0.6749    -3.9652    -1.1425 H       
  41 H41           -2.6960    -2.7506    -2.2655 H       
  42 H42           -4.6861    -6.4421    -1.4310 H       
  43 H43           -4.9093    -3.4694    -3.3026 H       
  44 H44           -6.0784    -7.2961    -5.4399 H       
  45 H45           -7.7314    -2.7660    -6.2552 H       
  46 H46           -7.7298    -6.9304    -7.2580 H       
  47 H47           -9.8908    -3.1608    -8.8552 H       
  48 H48           -9.6385    -2.8631    -7.1185 H       
  49 H49           -8.3096    -2.5896    -8.2706 H       
@<TRIPOS>BOND
   1    1    7 1
   2    1   31 1
   3    1   32 1
   4    1   33 1
   5    2    8 2
   6    2   34 1
   7    3    4 1
   8    3    8 1
   9    3   35 1
  10    4    5 1
  11    4    9 1
  12    4   10 1
  13    5    6 1
  14    5   36 1
  15    5   37 1
  16    6    7 am
  17    6   16 2
  18    6   17 2
  19    7    8 1
  20    9   38 1
  21    9   39 1
  22    9   40 1
  23   10   11 ar
  24   10   15 ar
  25   11   12 ar
  26   11   41 1
  27   12   13 ar
  28   12   19 1
  29   13   14 ar
  30   13   42 1
  31   14   15 ar
  32   14   29 1
  33   15   18 1
  34   19   20 am
  35   19   43 1
  36   20   21 2
  37   20   22 1
  38   22   23 ar
  39   22   25 ar
  40   23   26 ar
  41   23   44 1
  42   24   25 ar
  43   24   27 ar
  44   24   45 1
  45   26   27 ar
  46   26   46 1
  47   27   28 1
  48   28   30 1
  49   30   47 1
  50   30   48 1
  51   30   49 1

#	End of record

