#	Name: ASD01320079
#	Creating user name:	WinNT
#	Creation time:	15. 06. 2019 19:15

#	Modifying user name:	WinNT
#	Modification time:	15. 06. 2019 19:15

#	Program:	/corina/corina34_cracker 3.40 0067  02.08.2006

@<TRIPOS>MOLECULE
ASD01320079
  54   57    0    0    0
SMALL
NO_CHARGES


@<TRIPOS>ATOM
   1 Cl1           -1.4497     0.1269     3.0176 Cl      
   2 C2            -1.2307     1.7969     2.5972 C.ar    
   3 N3            -0.9667     5.7810     1.5459 N.pl3   
   4 O4            -4.0079     7.4392     0.5251 O.2     
   5 C5             0.0350     2.3663     2.6739 C.ar    
   6 N6            -2.0005     8.3846     0.6358 N.am    
   7 O7            -0.5182    10.5394     1.0506 O.2     
   8 C8             0.2305     3.6891     2.3449 C.ar    
   9 N9            -2.0995    12.0531     0.6898 N.am    
  10 O10           -4.2204    15.0540     2.6372 O.3     
  11 C11           -0.8475     4.4660     1.9309 C.ar    
  12 C12           -2.1295     3.8870     1.8534 C.ar    
  13 C13           -2.3026     2.5381     2.1886 C.ar    
  14 C14           -3.0139     4.9000     1.4100 C.2     
  15 C15           -2.2878     6.0343     1.2314 C.2     
  16 C16           -2.8229     7.3261     0.7757 C.2     
  17 C17           -2.5336     9.6715     0.1819 C.3     
  18 C18           -1.6440    10.7848     0.6721 C.2     
  19 C19           -1.2927    13.1301     1.2796 C.3     
  20 C20           -2.1394    13.8657     2.3230 C.3     
  21 C21           -3.4424    14.3393     1.6749 C.3     
  22 C22           -4.2351    13.1291     1.1756 C.3     
  23 C23           -3.4096    12.3861     0.1141 C.3     
  24 C24           -2.5817     9.6928    -1.3472 C.3     
  25 C25           -3.4945     8.5980    -1.8364 C.ar    
  26 C26           -4.8408     8.8522    -2.0208 C.ar    
  27 C27           -5.6788     7.8492    -2.4698 C.ar    
  28 C28           -5.1694     6.5892    -2.7349 C.ar    
  29 C29           -3.8209     6.3358    -2.5498 C.ar    
  30 C30           -2.9839     7.3419    -2.1058 C.ar    
  31 F31           -5.9877     5.6078    -3.1734 F       
  32 H32           -0.2424     6.4247     1.5026 H       
  33 H33            0.8731     1.7655     2.9949 H       
  34 H34           -1.0556     8.2944     0.8357 H       
  35 H35            1.2176     4.1226     2.4084 H       
  36 H36           -5.0623    15.3845     2.2950 H       
  37 H37           -3.2817     2.0864     2.1280 H       
  38 H38           -4.0754     4.7904     1.2434 H       
  39 H39           -3.5394     9.8085     0.5790 H       
  40 H40           -0.4104    12.7054     1.7585 H       
  41 H41           -0.9875    13.8273     0.4993 H       
  42 H42           -2.3677    13.1906     3.1478 H       
  43 H43           -1.5864    14.7263     2.6992 H       
  44 H44           -3.2128    14.9945     0.8347 H       
  45 H45           -4.4437    12.4609     2.0112 H       
  46 H46           -5.1736    13.4655     0.7351 H       
  47 H47           -3.2736    13.0239    -0.7593 H       
  48 H48           -3.9246    11.4704    -0.1762 H       
  49 H49           -2.9584    10.6581    -1.6854 H       
  50 H50           -1.5791     9.5346    -1.7445 H       
  51 H51           -5.2380     9.8349    -1.8136 H       
  52 H52           -6.7306     8.0479    -2.6135 H       
  53 H53           -3.4225     5.3535    -2.7563 H       
  54 H54           -1.9312     7.1456    -1.9652 H       
@<TRIPOS>BOND
   1    1    2 1
   2    2    5 ar
   3    2   13 ar
   4    3   11 1
   5    3   15 1
   6    3   32 1
   7    4   16 2
   8    5    8 ar
   9    5   33 1
  10    6   16 am
  11    6   17 1
  12    6   34 1
  13    7   18 2
  14    8   11 ar
  15    8   35 1
  16    9   18 am
  17    9   19 1
  18    9   23 1
  19   10   21 1
  20   10   36 1
  21   11   12 ar
  22   12   13 ar
  23   12   14 1
  24   13   37 1
  25   14   15 2
  26   14   38 1
  27   15   16 1
  28   17   18 1
  29   17   24 1
  30   17   39 1
  31   19   20 1
  32   19   40 1
  33   19   41 1
  34   20   21 1
  35   20   42 1
  36   20   43 1
  37   21   22 1
  38   21   44 1
  39   22   23 1
  40   22   45 1
  41   22   46 1
  42   23   47 1
  43   23   48 1
  44   24   25 1
  45   24   49 1
  46   24   50 1
  47   25   26 ar
  48   25   30 ar
  49   26   27 ar
  50   26   51 1
  51   27   28 ar
  52   27   52 1
  53   28   29 ar
  54   28   31 1
  55   29   30 ar
  56   29   53 1
  57   30   54 1

#	End of record

