#	Name: ASD00170233
#	Creating user name:	WinNT
#	Creation time:	15. 06. 2019 18:31

#	Modifying user name:	WinNT
#	Modification time:	15. 06. 2019 18:31

#	Program:	/corina/corina34_cracker 3.40 0067  02.08.2006

@<TRIPOS>MOLECULE
ASD00170233
  39   41    0    0    0
SMALL
NO_CHARGES


@<TRIPOS>ATOM
   1 C1             0.0054     1.3244     0.0069 C.2     
   2 C2             0.0167    -0.0126    -0.0002 C.2     
   3 C3            -1.3214    -0.5779     0.0105 C.2     
   4 C4            -2.3090     0.3691     0.0259 C.2     
   5 S5            -1.6410     1.9350     0.0199 S.3     
   6 N6            -3.6630     0.0924     0.0384 N.pl3   
   7 C7            -1.5870    -2.0178     0.0050 C.2     
   8 N8            -1.7215    -2.6738    -1.1647 N.am    
   9 O9            -1.6864    -2.6225     1.0569 O.2     
  10 C10           -1.8636    -4.0651    -1.1739 C.ar    
  11 C11            1.2509     2.1900    -0.0016 C.3     
  12 C12            2.4521     1.3282     0.3967 C.3     
  13 C13            2.4548     0.0527    -0.4512 C.3     
  14 C14            1.2912    -0.8415    -0.0168 C.3     
  15 C15           -2.6713    -4.6754    -2.1250 C.ar    
  16 C16           -2.8117    -6.0498    -2.1339 C.ar    
  17 C17           -2.1496    -6.8206    -1.1977 C.ar    
  18 C18           -1.3411    -6.2162    -0.2448 C.ar    
  19 C19           -1.1932    -4.8384    -0.2361 C.ar    
  20 O20           -0.6906    -6.9757     0.6755 O.3     
  21 C21           -0.8844    -8.3897     0.6036 C.3     
  22 H22           -3.9700    -0.8277     0.0365 H       
  23 H23           -4.3062     0.8184     0.0490 H       
  24 H24           -1.7196    -2.1809    -2.0001 H       
  25 H25            1.4074     2.5953    -1.0013 H       
  26 H26            1.1339     3.0059     0.7116 H       
  27 H27            3.3734     1.8839     0.2223 H       
  28 H28            2.3778     1.0646     1.4517 H       
  29 H29            2.3404     0.3143    -1.5031 H       
  30 H30            3.3957    -0.4784    -0.3072 H       
  31 H31            1.4851    -1.2343     0.9813 H       
  32 H32            1.1813    -1.6661    -0.7212 H       
  33 H33           -3.1901    -4.0751    -2.8577 H       
  34 H34           -3.4404    -6.5225    -2.8740 H       
  35 H35           -2.2616    -7.8948    -1.2070 H       
  36 H36           -0.5646    -4.3664     0.5045 H       
  37 H37           -1.9426    -8.6183     0.7304 H       
  38 H38           -0.5479    -8.7536    -0.3672 H       
  39 H39           -0.3106    -8.8756     1.3927 H       
@<TRIPOS>BOND
   1    1    2 2
   2    1   11 1
   3    1    5 1
   4    2    3 1
   5    2   14 1
   6    3    4 2
   7    3    7 1
   8    4    5 1
   9    4    6 1
  10    6   22 1
  11    6   23 1
  12    7    8 am
  13    7    9 2
  14    8   10 1
  15    8   24 1
  16   10   15 ar
  17   10   19 ar
  18   11   12 1
  19   11   25 1
  20   11   26 1
  21   12   13 1
  22   12   27 1
  23   12   28 1
  24   13   14 1
  25   13   29 1
  26   13   30 1
  27   14   31 1
  28   14   32 1
  29   15   16 ar
  30   15   33 1
  31   16   17 ar
  32   16   34 1
  33   17   18 ar
  34   17   35 1
  35   18   19 ar
  36   18   20 1
  37   19   36 1
  38   20   21 1
  39   21   37 1
  40   21   38 1
  41   21   39 1

#	End of record

