#	Name: ASD01913275
#	Creating user name:	WinNT
#	Creation time:	15. 06. 2019 20:01

#	Modifying user name:	WinNT
#	Modification time:	15. 06. 2019 20:01

#	Program:	/corina/corina34_cracker 3.40 0067  02.08.2006

@<TRIPOS>MOLECULE
ASD01913275
  47   50    0    0    0
SMALL
NO_CHARGES


@<TRIPOS>ATOM
   1 C1             0.0827     1.2459     1.4489 C.ar    
   2 C2             0.0846    -0.1156     1.1981 C.ar    
   3 C3             1.2882    -0.7687     0.9242 C.ar    
   4 C4             2.4823    -0.0423     0.9053 C.ar    
   5 C5             2.4674     1.3137     1.1568 C.ar    
   6 C6             1.2742     1.9584     1.4279 C.ar    
   7 O7            -1.0871     1.8865     1.7104 O.3     
   8 C8             1.2990    -2.1768     0.6641 C.1     
   9 C9             1.3079    -3.3313     0.4509 C.1     
  10 C10            1.3188    -4.7394     0.1908 C.ar    
  11 C11            2.5294    -5.3959    -0.0847 C.ar    
  12 C12            2.5373    -6.7602    -0.3358 C.ar    
  13 C13            1.3602    -7.4768    -0.3164 C.ar    
  14 C14            0.1488    -6.8340    -0.0434 C.ar    
  15 C15            0.1296    -5.4640     0.2157 C.ar    
  16 O16            3.6910    -4.6959    -0.1056 O.3     
  17 C17            4.8844    -5.4277    -0.3926 C.3     
  18 C18           -1.1091    -7.6067    -0.0244 C.2     
  19 O19           -1.0794    -8.8189    -0.1138 O.2     
  20 C20           -3.6228    -7.5757     0.0147 C.3     
  21 N21           -2.2904    -6.9684     0.0921 N.am    
  22 C22           -2.4892    -5.5337     0.3211 C.3     
  23 C23           -3.9744    -5.2806     0.3814 C.ar    
  24 C24           -4.6934    -4.1134     0.5749 C.ar    
  25 C25           -6.0745    -4.1448     0.5890 C.ar    
  26 C26           -6.7398    -5.3433     0.4092 C.ar    
  27 C27           -6.0229    -6.5081     0.2156 C.ar    
  28 C28           -4.6388    -6.4775     0.2019 C.ar    
  29 H29           -0.8416    -0.6709     1.2145 H       
  30 H30            3.4159    -0.5426     0.6944 H       
  31 H31            3.3906     1.8739     1.1424 H       
  32 H32            1.2692     3.0205     1.6241 H       
  33 H33           -1.3197     1.9132     2.6486 H       
  34 H34            3.4695    -7.2627    -0.5478 H       
  35 H35            1.3734    -8.5386    -0.5132 H       
  36 H36           -0.8042    -4.9660     0.4310 H       
  37 H37            5.7382    -4.7503    -0.3782 H       
  38 H38            5.0240    -6.2044     0.3593 H       
  39 H39            4.8011    -5.8865    -1.3779 H       
  40 H40           -3.7596    -8.0433    -0.9603 H       
  41 H41           -3.7354    -8.3212     0.8019 H       
  42 H42           -2.0262    -5.2424     1.2639 H       
  43 H43           -2.0504    -4.9646    -0.4984 H       
  44 H44           -4.1739    -3.1771     0.7154 H       
  45 H45           -6.6340    -3.2336     0.7408 H       
  46 H46           -7.8195    -5.3689     0.4204 H       
  47 H47           -6.5428    -7.4443     0.0756 H       
@<TRIPOS>BOND
   1    1    2 ar
   2    1    6 ar
   3    1    7 1
   4    2    3 ar
   5    2   29 1
   6    3    4 ar
   7    3    8 1
   8    4    5 ar
   9    4   30 1
  10    5    6 ar
  11    5   31 1
  12    6   32 1
  13    7   33 1
  14    8    9 3
  15    9   10 1
  16   10   11 ar
  17   10   15 ar
  18   11   12 ar
  19   11   16 1
  20   12   13 ar
  21   12   34 1
  22   13   14 ar
  23   13   35 1
  24   14   15 ar
  25   14   18 1
  26   15   36 1
  27   16   17 1
  28   17   37 1
  29   17   38 1
  30   17   39 1
  31   18   19 2
  32   18   21 am
  33   20   21 1
  34   20   28 1
  35   20   40 1
  36   20   41 1
  37   21   22 1
  38   22   23 1
  39   22   42 1
  40   22   43 1
  41   23   24 ar
  42   23   28 ar
  43   24   25 ar
  44   24   44 1
  45   25   26 ar
  46   25   45 1
  47   26   27 ar
  48   26   46 1
  49   27   28 ar
  50   27   47 1

#	End of record

