#	Name: ASD00431133
#	Creating user name:	WinNT
#	Creation time:	15. 06. 2019 18:35

#	Modifying user name:	WinNT
#	Modification time:	15. 06. 2019 18:35

#	Program:	/corina/corina34_cracker 3.40 0067  02.08.2006

@<TRIPOS>MOLECULE
ASD00431133
  49   51    0    0    0
SMALL
NO_CHARGES


@<TRIPOS>ATOM
   1 C1             1.0227     2.5328    -2.3762 C.2     
   2 N2             1.1368     1.2497    -1.9798 N.am    
   3 O3             1.9705     3.0959    -2.9058 O.co2   
   4 O4            -0.0304     3.1326    -2.2109 O.co2   
   5 C5             2.3962     0.5295    -2.1832 C.3     
   6 C6             3.3441     0.8204    -1.0180 C.3     
   7 O7             1.2572    -1.6405    -1.4942 O.3     
   8 N8             1.2523    -2.8167    -1.7745 N.2     
   9 C9             2.0969    -3.0817    -2.7405 C.2     
  10 C10            2.7032    -1.8416    -3.0866 C.2     
  11 C11            2.1229    -0.9510    -2.2509 C.2     
  12 C12            2.3668    -4.4070    -3.3503 C.ar    
  13 C13            1.6854    -5.5357    -2.8977 C.ar    
  14 C14            1.9381    -6.7660    -3.4662 C.ar    
  15 C15            2.8707    -6.8815    -4.4889 C.ar    
  16 C16            3.5514    -5.7587    -4.9415 C.ar    
  17 C17            3.2981    -4.5249    -4.3808 C.ar    
  18 O18            3.1178    -8.0948    -5.0471 O.3     
  19 C19            4.2557    -8.7445    -4.6844 C.ar    
  20 C20            5.0948    -8.1923    -3.7276 C.ar    
  21 C21            6.2508    -8.8523    -3.3592 C.ar    
  22 C22            6.5727   -10.0673    -3.9459 C.ar    
  23 C23            5.7338   -10.6195    -4.9026 C.ar    
  24 C24            4.5748    -9.9624    -5.2669 C.ar    
  25 O25            7.7110   -10.7168    -3.5835 O.3     
  26 C26            8.0421   -11.9010    -4.3116 C.3     
  27 C27            9.5520   -12.1379    -4.2408 C.3     
  28 C28            7.3090   -13.0970    -3.7007 C.3     
  29 H29            0.3851     0.8032    -1.5597 H       
  30 H30            2.8556     0.8572    -3.1158 H       
  31 H31            4.2811     0.2845    -1.1694 H       
  32 H32            3.5418     1.8912    -0.9690 H       
  33 H33            2.8847     0.4927    -0.0854 H       
  34 H34            3.4530    -1.6551    -3.8412 H       
  35 H35            0.9603    -5.4465    -2.1022 H       
  36 H36            1.4107    -7.6409    -3.1156 H       
  37 H37            4.2764    -5.8514    -5.7366 H       
  38 H38            3.8242    -3.6513    -4.7364 H       
  39 H39            4.8444    -7.2461    -3.2710 H       
  40 H40            6.9043    -8.4223    -2.6146 H       
  41 H41            5.9847   -11.5654    -5.3596 H       
  42 H42            3.9194   -10.3945    -6.0086 H       
  43 H43            7.7412   -11.7835    -5.3526 H       
  44 H44            9.8529   -12.2554    -3.1997 H       
  45 H45            9.8045   -13.0412    -4.7962 H       
  46 H46           10.0742   -11.2859    -4.6760 H       
  47 H47            6.2333   -12.9282    -3.7512 H       
  48 H48            7.5615   -14.0003    -4.2561 H       
  49 H49            7.6099   -13.2145    -2.6597 H       
@<TRIPOS>BOND
   1    1    2 am
   2    1    3 ar
   3    1    4 ar
   4    2    5 1
   5    2   29 1
   6    5    6 1
   7    5   11 1
   8    5   30 1
   9    6   31 1
  10    6   32 1
  11    6   33 1
  12    7    8 1
  13    7   11 1
  14    8    9 2
  15    9   10 1
  16    9   12 1
  17   10   11 2
  18   10   34 1
  19   12   13 ar
  20   12   17 ar
  21   13   14 ar
  22   13   35 1
  23   14   15 ar
  24   14   36 1
  25   15   16 ar
  26   15   18 1
  27   16   17 ar
  28   16   37 1
  29   17   38 1
  30   18   19 1
  31   19   20 ar
  32   19   24 ar
  33   20   21 ar
  34   20   39 1
  35   21   22 ar
  36   21   40 1
  37   22   23 ar
  38   22   25 1
  39   23   24 ar
  40   23   41 1
  41   24   42 1
  42   25   26 1
  43   26   27 1
  44   26   28 1
  45   26   43 1
  46   27   44 1
  47   27   45 1
  48   27   46 1
  49   28   47 1
  50   28   48 1
  51   28   49 1

#	End of record

