#	Name: ASD01912969
#	Creating user name:	WinNT
#	Creation time:	15. 06. 2019 20:00

#	Modifying user name:	WinNT
#	Modification time:	15. 06. 2019 20:00

#	Program:	/corina/corina34_cracker 3.40 0067  02.08.2006

@<TRIPOS>MOLECULE
ASD01912969
  48   52    0    0    0
SMALL
NO_CHARGES


@<TRIPOS>ATOM
   1 C1             0.0546     1.4012     0.1496 C.2     
   2 C2             0.0932    -0.0301     0.1759 C.1     
   3 C3             0.1249    -1.2034     0.1975 C.1     
   4 C4             0.1635    -2.6347     0.2238 C.ar    
   5 C5            -1.0257    -3.3691     0.2552 C.ar    
   6 C6             1.3904    -3.3047     0.2125 C.ar    
   7 C7             1.4195    -4.6831     0.2375 C.ar    
   8 C8             0.2381    -5.4031     0.2733 C.ar    
   9 C9            -0.9804    -4.7471     0.2799 C.ar    
  10 N10            1.0930     2.1848     0.1196 N.2     
  11 C11            0.8847     3.4901     0.0996 C.2     
  12 C12           -0.4189     3.8406     0.1078 C.2     
  13 S13           -1.4057     2.3849     0.1450 S.3     
  14 C14            2.0122     4.5139     0.0772 C.3     
  15 C15            1.4642     5.8545    -0.4157 C.3     
  16 N16            0.2148     6.1556     0.2993 N.am    
  17 C17           -0.9349     5.2621     0.0786 C.3     
  18 C18            0.1251     7.2137     1.1292 C.2     
  19 C19           -1.1676     7.4991     1.8493 C.3     
  20 O20            1.0847     7.9363     1.2964 O.2     
  21 C21           -1.2707     6.6360     3.1437 C.3     
  22 C22            0.1029     6.8330     3.8548 C.3     
  23 C23            0.0770     8.2948     4.3567 C.3     
  24 C24           -1.3099     8.8433     3.9017 C.3     
  25 C25           -1.1935     8.9609     2.3512 C.3     
  26 C26           -2.1895     7.5498     4.0293 C.3     
  27 H27           -1.9773    -2.8584     0.2604 H       
  28 H28            2.3131    -2.7441     0.1838 H       
  29 H29            2.3665    -5.2022     0.2288 H       
  30 H30            0.2672    -6.4826     0.2921 H       
  31 H31           -1.8981    -5.3158     0.3080 H       
  32 H32            2.4160     4.6330     1.0827 H       
  33 H33            2.8001     4.1733    -0.5946 H       
  34 H34            2.1940     6.6403    -0.2210 H       
  35 H35            1.2665     5.7961    -1.4860 H       
  36 H36           -1.3861     5.4722    -0.8911 H       
  37 H37           -1.6716     5.4048     0.8692 H       
  38 H38           -2.0172     7.3052     1.1945 H       
  39 H39           -1.5911     5.6035     3.0037 H       
  40 H40            0.1983     6.1445     4.6945 H       
  41 H41            0.9205     6.6881     3.1487 H       
  42 H42            0.1597     8.3250     5.4432 H       
  43 H43            0.8819     8.8686     3.8974 H       
  44 H44           -1.6642     9.7333     4.4218 H       
  45 H45           -0.2712     9.4732     2.0772 H       
  46 H46           -2.0569     9.4872     1.9442 H       
  47 H47           -3.1784     7.6829     3.5905 H       
  48 H48           -2.2484     7.1954     5.0584 H       
@<TRIPOS>BOND
   1    1    2 1
   2    1   10 2
   3    1   13 1
   4    2    3 3
   5    3    4 1
   6    4    5 ar
   7    4    6 ar
   8    5    9 ar
   9    5   27 1
  10    6    7 ar
  11    6   28 1
  12    7    8 ar
  13    7   29 1
  14    8    9 ar
  15    8   30 1
  16    9   31 1
  17   10   11 1
  18   11   12 2
  19   11   14 1
  20   12   13 1
  21   12   17 1
  22   14   15 1
  23   14   32 1
  24   14   33 1
  25   15   16 1
  26   15   34 1
  27   15   35 1
  28   16   17 1
  29   16   18 am
  30   17   36 1
  31   17   37 1
  32   18   19 1
  33   18   20 2
  34   19   21 1
  35   19   25 1
  36   19   38 1
  37   21   22 1
  38   21   26 1
  39   21   39 1
  40   22   23 1
  41   22   40 1
  42   22   41 1
  43   23   24 1
  44   23   42 1
  45   23   43 1
  46   24   25 1
  47   24   26 1
  48   24   44 1
  49   25   45 1
  50   25   46 1
  51   26   47 1
  52   26   48 1

#	End of record

