#	Name: ASD04930050
#	Creating user name:	WinNT
#	Creation time:	15. 06. 2019 20:56

#	Modifying user name:	WinNT
#	Modification time:	15. 06. 2019 20:56

#	Program:	/corina/corina34_cracker 3.40 0067  02.08.2006

@<TRIPOS>MOLECULE
ASD04930050
  79   81    0    0    0
SMALL
NO_CHARGES


@<TRIPOS>ATOM
   1 C1            -1.2166    -0.9341    -2.2221 C.ar    
   2 C2            -0.5450    -1.0601    -1.0130 C.ar    
   3 C3            -1.1004    -0.5787     0.1525 C.ar    
   4 C4            -2.3463     0.0413     0.1270 C.ar    
   5 C5            -3.0276     0.1697    -1.0965 C.ar    
   6 C6            -2.4478    -0.3193    -2.2727 C.ar    
   7 N7            -2.9048     0.5238     1.2935 N.am    
   8 C8            -4.1051     1.1275     1.3057 C.2     
   9 C9            -4.8724     1.2979     0.0726 C.2     
  10 C10           -4.3406     0.8223    -1.1282 C.2     
  11 O11           -5.0172     0.9601    -2.2875 O.3     
  12 O12           -4.5605     1.5381     2.3583 O.2     
  13 C13           -6.1830     1.9590     0.0965 C.2     
  14 O14           -6.2520     3.1699     0.1942 O.2     
  15 N15           -7.3099     1.2246     0.0102 N.am    
  16 C16           -2.1695     0.3733     2.5517 C.3     
  17 Cl17          -0.4973    -1.5481    -3.6779 Cl      
  18 C18           -1.2744     1.5950     2.7686 C.3     
  19 C19           -0.6016     1.4974     4.1393 C.3     
  20 C20            0.2935     2.7191     4.3562 C.3     
  21 C21            1.3645     2.7669     3.2647 C.3     
  22 C22            0.6918     2.8645     1.8940 C.3     
  23 C23           -0.2033     1.6428     1.6771 C.3     
  24 N24           -8.5604     1.8423     0.1428 N.am    
  25 C25           -9.6872     1.1079     0.0565 C.2     
  26 C26          -11.0323     1.7722     0.1991 C.3     
  27 O27           -9.6186    -0.0876    -0.1360 O.2     
  28 C28          -12.1368     0.7223     0.0619 C.3     
  29 C29          -13.5024     1.3968     0.2067 C.3     
  30 C30          -14.6069     0.3469     0.0695 C.3     
  31 C31          -15.9725     1.0214     0.2143 C.3     
  32 C32          -17.0770    -0.0285     0.0771 C.3     
  33 C33          -18.4426     0.6460     0.2219 C.3     
  34 C34          -19.5471    -0.4039     0.0847 C.3     
  35 C35          -20.9127     0.2706     0.2295 C.3     
  36 C36          -22.0172    -0.7793     0.0923 C.3     
  37 C37          -23.3828    -0.1048     0.2372 C.3     
  38 H38            0.4219    -1.5404    -0.9860 H       
  39 H39           -0.5686    -0.6829     1.0867 H       
  40 H40           -2.9674    -0.2225    -3.2145 H       
  41 H41           -5.9036     1.3324    -2.1837 H       
  42 H42           -7.2550     0.2685    -0.1437 H       
  43 H43           -2.8759     0.2892     3.3775 H       
  44 H44           -1.5537    -0.5250     2.5074 H       
  45 H45           -1.8790     2.5008     2.7243 H       
  46 H46           -1.3646     1.4634     4.9169 H       
  47 H47            0.0030     0.5915     4.1836 H       
  48 H48           -0.3111     3.6250     4.3119 H       
  49 H49            0.7728     2.6496     5.3327 H       
  50 H50            2.0022     3.6373     3.4192 H       
  51 H51            1.9692     1.8611     3.3090 H       
  52 H52            0.0872     3.7704     1.8497 H       
  53 H53            1.4548     2.8985     1.1163 H       
  54 H54            0.4013     0.7369     1.7214 H       
  55 H55           -0.6826     1.7123     0.7006 H       
  56 H56           -8.6152     2.7984     0.2967 H       
  57 H57          -11.1014     2.2464     1.1782 H       
  58 H58          -11.1493     2.5265    -0.5790 H       
  59 H59          -12.0677     0.2482    -0.9171 H       
  60 H60          -12.0197    -0.0320     0.8400 H       
  61 H61          -13.5715     1.8710     1.1858 H       
  62 H62          -13.6194     2.1511    -0.5714 H       
  63 H63          -14.5378    -0.1272    -0.9095 H       
  64 H64          -14.4898    -0.4074     0.8476 H       
  65 H65          -16.0416     1.4956     1.1934 H       
  66 H66          -16.0896     1.7757    -0.5638 H       
  67 H67          -17.0079    -0.5027    -0.9019 H       
  68 H68          -16.9599    -0.7828     0.8552 H       
  69 H69          -18.5117     1.1202     1.2010 H       
  70 H70          -18.5597     1.4003    -0.5562 H       
  71 H71          -19.4780    -0.8781    -0.8943 H       
  72 H72          -19.4300    -1.1582     0.8628 H       
  73 H73          -20.9818     0.7448     1.2086 H       
  74 H74          -21.0298     1.0249    -0.5486 H       
  75 H75          -21.9481    -1.2535    -0.8867 H       
  76 H76          -21.9001    -1.5336     0.8704 H       
  77 H77          -23.4519     0.3693     1.2162 H       
  78 H78          -23.4999     0.6495    -0.5410 H       
  79 H79          -24.1697    -0.8528     0.1394 H       
@<TRIPOS>BOND
   1    1    2 ar
   2    1   17 1
   3    1    6 ar
   4    2    3 ar
   5    2   38 1
   6    3    4 ar
   7    3   39 1
   8    4    5 ar
   9    4    7 1
  10    5    6 ar
  11    5   10 1
  12    6   40 1
  13    7    8 am
  14    7   16 1
  15    8    9 1
  16    8   12 2
  17    9   10 2
  18    9   13 1
  19   10   11 1
  20   11   41 1
  21   13   14 2
  22   13   15 am
  23   15   24 1
  24   15   42 1
  25   16   18 1
  26   16   43 1
  27   16   44 1
  28   18   19 1
  29   18   23 1
  30   18   45 1
  31   19   20 1
  32   19   46 1
  33   19   47 1
  34   20   21 1
  35   20   48 1
  36   20   49 1
  37   21   22 1
  38   21   50 1
  39   21   51 1
  40   22   23 1
  41   22   52 1
  42   22   53 1
  43   23   54 1
  44   23   55 1
  45   24   25 am
  46   24   56 1
  47   25   26 1
  48   25   27 2
  49   26   28 1
  50   26   57 1
  51   26   58 1
  52   28   29 1
  53   28   59 1
  54   28   60 1
  55   29   30 1
  56   29   61 1
  57   29   62 1
  58   30   31 1
  59   30   63 1
  60   30   64 1
  61   31   32 1
  62   31   65 1
  63   31   66 1
  64   32   33 1
  65   32   67 1
  66   32   68 1
  67   33   34 1
  68   33   69 1
  69   33   70 1
  70   34   35 1
  71   34   71 1
  72   34   72 1
  73   35   36 1
  74   35   73 1
  75   35   74 1
  76   36   37 1
  77   36   75 1
  78   36   76 1
  79   37   77 1
  80   37   78 1
  81   37   79 1

#	End of record

