#	Name: ASD01948226
#	Creating user name:	WinNT
#	Creation time:	15. 06. 2019 20:14

#	Modifying user name:	WinNT
#	Modification time:	15. 06. 2019 20:14

#	Program:	/corina/corina34_cracker 3.40 0067  02.08.2006

@<TRIPOS>MOLECULE
ASD01948226
  47   49    0    0    0
SMALL
NO_CHARGES


@<TRIPOS>ATOM
   1 C1             0.3034     1.6576     0.4507 C.ar    
   2 C2             0.5381     0.3001     0.4555 C.ar    
   3 C3            -0.5056    -0.6014     0.2183 C.ar    
   4 C4            -1.7939    -0.1162    -0.0246 C.ar    
   5 C5            -2.0289     1.2470    -0.0292 C.ar    
   6 C6            -0.9839     2.1400     0.2133 C.ar    
   7 C7             1.7767    -0.5318     0.6782 C.3     
   8 N8             1.3576    -1.9322     0.5509 N.am    
   9 C9             0.0405    -1.9674     0.2857 C.2     
  10 C10           -2.6270     2.5005    -2.4542 C.ar    
  11 C11           -3.6136     2.3589    -1.4881 C.ar    
  12 N12           -3.3198     1.7323    -0.2727 N.pl3   
  13 C13           -2.9200     3.1204    -3.6539 C.ar    
  14 C14           -4.1945     3.6004    -3.8936 C.ar    
  15 C15           -5.1817     3.4612    -2.9338 C.ar    
  16 C16           -4.8956     2.8421    -1.7314 C.ar    
  17 F17           -5.8591     2.7061    -0.7943 F       
  18 I18           -4.6322     4.5399    -5.7142 I       
  19 O19           -0.6083    -2.9831     0.1246 O.2     
  20 N20           -1.2247     3.5150     0.2084 N.am    
  21 S21           -2.2357     4.1827     1.3372 S.o2    
  22 N22           -1.5393     3.9450     2.8207 N.am    
  23 C23           -0.2525     4.5710     3.1346 C.3     
  24 O24            1.3243     2.5261     0.6827 O.3     
  25 C25            2.0616     2.9792    -0.4544 C.3     
  26 O26           -2.2229     5.5850     1.1080 O.2     
  27 O27           -3.4240     3.4036     1.3223 O.2     
  28 C28           -0.0127     4.5146     4.6446 C.3     
  29 O29            0.1194     3.1523     5.0554 O.3     
  30 H30           -2.6050    -0.8050    -0.2089 H       
  31 H31            2.5275    -0.2953    -0.0758 H       
  32 H32            2.1763    -0.3494     1.6758 H       
  33 H33            1.9360    -2.7054     0.6430 H       
  34 H34           -1.6298     2.1305    -2.2665 H       
  35 H35           -4.0101     1.6339     0.4016 H       
  36 H36           -2.1522     3.2305    -4.4054 H       
  37 H37           -6.1759     3.8377    -3.1237 H       
  38 H38           -0.7997     4.0794    -0.4563 H       
  39 H39           -1.9833     3.3912     3.4818 H       
  40 H40            0.5464     4.0374     2.6197 H       
  41 H41           -0.2648     5.6106     2.8072 H       
  42 H42            2.8445     3.6648    -0.1301 H       
  43 H43            2.5129     2.1249    -0.9588 H       
  44 H44            1.3898     3.4937    -1.1415 H       
  45 H45            0.9004     5.0577     4.8881 H       
  46 H46           -0.8559     4.9704     5.1637 H       
  47 H47            0.2738     3.0405     6.0034 H       
@<TRIPOS>BOND
   1    1    2 ar
   2    1   24 1
   3    1    6 ar
   4    2    3 ar
   5    2    7 1
   6    3    4 ar
   7    3    9 1
   8    4    5 ar
   9    4   30 1
  10    5    6 ar
  11    5   12 1
  12    6   20 1
  13    7    8 1
  14    7   31 1
  15    7   32 1
  16    8    9 am
  17    8   33 1
  18    9   19 2
  19   10   11 ar
  20   10   13 ar
  21   10   34 1
  22   11   12 1
  23   11   16 ar
  24   12   35 1
  25   13   14 ar
  26   13   36 1
  27   14   15 ar
  28   14   18 1
  29   15   16 ar
  30   15   37 1
  31   16   17 1
  32   20   21 am
  33   20   38 1
  34   21   22 am
  35   21   26 2
  36   21   27 2
  37   22   23 1
  38   22   39 1
  39   23   28 1
  40   23   40 1
  41   23   41 1
  42   24   25 1
  43   25   42 1
  44   25   43 1
  45   25   44 1
  46   28   29 1
  47   28   45 1
  48   28   46 1
  49   29   47 1

#	End of record

