#	Name: ASD01208430
#	Creating user name:	WinNT
#	Creation time:	15. 06. 2019 19:09

#	Modifying user name:	WinNT
#	Modification time:	15. 06. 2019 19:09

#	Program:	/corina/corina34_cracker 3.40 0067  02.08.2006

@<TRIPOS>MOLECULE
ASD01208430
  37   39    0    0    0
SMALL
NO_CHARGES


@<TRIPOS>ATOM
   1 N1            -0.0165     1.3636     0.0095 N.am    
   2 C2             0.0021    -0.0041     0.0020 C.2     
   3 C3             1.2893    -0.4153    -0.0125 C.2     
   4 C4             2.1072     0.7255    -0.0142 C.2     
   5 C5             1.2882     1.8167    -0.0005 C.2     
   6 C6            -1.1200     2.1373     0.0192 C.2     
   7 O7            -1.6117     2.4805     1.0751 O.2     
   8 O8            -1.6769     2.5294    -1.1413 O.3     
   9 S9             3.3907     3.7617    -0.0101 S.3     
  10 C10            1.7174     3.2224     0.0030 C.2     
  11 N11            0.9178     4.2393     0.0161 N.2     
  12 C12            1.4635     5.4675     0.0174 C.ar    
  13 C13            2.8632     5.4428     0.0039 C.ar    
  14 C14            0.8150     6.7223     0.0297 C.ar    
  15 C15            1.5469     7.8823     0.0277 C.ar    
  16 C16            2.9337     7.8431     0.0138 C.ar    
  17 C17            3.5887     6.6317     0.0038 C.ar    
  18 Br18          -1.5174    -1.1297     0.0114 Br      
  19 C19           -2.8637     3.3614    -1.0550 C.3     
  20 C20           -2.5288     4.6512    -0.3032 C.3     
  21 C21           -3.3498     3.7043    -2.4646 C.3     
  22 C22           -3.9631     2.6055    -0.3062 C.3     
  23 H23            1.6287    -1.4406    -0.0209 H       
  24 H24            3.1871     0.7373    -0.0239 H       
  25 H25           -0.2639     6.7686     0.0402 H       
  26 H26            1.0388     8.8352     0.0368 H       
  27 H27            3.4997     8.7629     0.0117 H       
  28 H28            4.6683     6.6035    -0.0067 H       
  29 H29           -1.7456     5.1898    -0.8366 H       
  30 H30           -3.4198     5.2758    -0.2384 H       
  31 H31           -2.1825     4.4069     0.7011 H       
  32 H32           -3.5885     2.7855    -3.0002 H       
  33 H33           -4.2408     4.3289    -2.3998 H       
  34 H34           -2.5666     4.2429    -2.9980 H       
  35 H35           -3.6168     2.3612     0.6981 H       
  36 H36           -4.8541     3.2300    -0.2413 H       
  37 H37           -4.2017     1.6866    -0.8418 H       
@<TRIPOS>BOND
   1    1    2 1
   2    1    5 1
   3    1    6 am
   4    2    3 2
   5    2   18 1
   6    3    4 1
   7    3   23 1
   8    4    5 2
   9    4   24 1
  10    5   10 1
  11    6    7 2
  12    6    8 1
  13    8   19 1
  14    9   10 1
  15    9   13 1
  16   10   11 2
  17   11   12 1
  18   12   13 ar
  19   12   14 ar
  20   13   17 ar
  21   14   15 ar
  22   14   25 1
  23   15   16 ar
  24   15   26 1
  25   16   17 ar
  26   16   27 1
  27   17   28 1
  28   19   20 1
  29   19   22 1
  30   19   21 1
  31   20   29 1
  32   20   30 1
  33   20   31 1
  34   21   32 1
  35   21   33 1
  36   21   34 1
  37   22   35 1
  38   22   36 1
  39   22   37 1

#	End of record

