#	Name: ASD01230592
#	Creating user name:	WinNT
#	Creation time:	15. 06. 2019 19:14

#	Modifying user name:	WinNT
#	Modification time:	15. 06. 2019 19:14

#	Program:	/corina/corina34_cracker 3.40 0067  02.08.2006

@<TRIPOS>MOLECULE
ASD01230592
  34   36    0    0    0
SMALL
NO_CHARGES


@<TRIPOS>ATOM
   1 S1            -0.0204     1.6502     0.0111 S.o2    
   2 N2             0.0021    -0.0041     0.0020 N.am    
   3 C3             1.0256    -0.6894    -0.4563 C.2     
   4 N4             2.1713    -0.1507    -0.9688 N.pl3   
   5 C5             2.3936     1.2863    -1.1471 C.3     
   6 C6             1.7498     2.0759    -0.0035 C.3     
   7 C7             0.8928    -2.1077    -0.3981 C.2     
   8 C8             1.9093    -2.9032    -0.8069 C.2     
   9 C9             3.0927    -2.3153    -1.2868 C.2     
  10 C10            3.1981    -0.9765    -1.3566 C.2     
  11 C11           -0.3816    -2.7228     0.1202 C.3     
  12 O12           -0.2734    -4.1472     0.0808 O.3     
  13 C13           -1.3452    -4.8596     0.5173 C.ar    
  14 C14           -1.3084    -6.2463     0.5068 C.ar    
  15 C15           -2.3989    -6.9691     0.9513 C.ar    
  16 C16           -3.5264    -6.3119     1.4066 C.ar    
  17 C17           -3.5663    -4.9284     1.4180 C.ar    
  18 C18           -2.4755    -4.2013     0.9794 C.ar    
  19 O19           -0.6348     2.0061    -1.2198 O.2     
  20 O20           -0.6111     1.9928     1.2573 O.2     
  21 Cl21          -4.9841    -4.1060     1.9899 Cl      
  22 H22            3.4652     1.4851    -1.1626 H       
  23 H23            1.9560     1.6031    -2.0938 H       
  24 H24            1.8733     3.1452    -0.1748 H       
  25 H25            2.2071     1.7954     0.9453 H       
  26 H26            1.8121    -3.9780    -0.7645 H       
  27 H27            3.9172    -2.9389    -1.5995 H       
  28 H28            4.1135    -0.5393    -1.7270 H       
  29 H29           -0.5496    -2.3995     1.1475 H       
  30 H30           -1.2179    -2.4046    -0.5022 H       
  31 H31           -0.4280    -6.7607     0.1509 H       
  32 H32           -2.3703    -8.0487     0.9428 H       
  33 H33           -4.3777    -6.8787     1.7537 H       
  34 H34           -2.5047    -3.1217     0.9928 H       
@<TRIPOS>BOND
   1    1    2 am
   2    1    6 1
   3    1   19 2
   4    1   20 2
   5    2    3 2
   6    3    4 1
   7    3    7 1
   8    4    5 1
   9    4   10 1
  10    5    6 1
  11    5   22 1
  12    5   23 1
  13    6   24 1
  14    6   25 1
  15    7    8 2
  16    7   11 1
  17    8    9 1
  18    8   26 1
  19    9   10 2
  20    9   27 1
  21   10   28 1
  22   11   12 1
  23   11   29 1
  24   11   30 1
  25   12   13 1
  26   13   14 ar
  27   13   18 ar
  28   14   15 ar
  29   14   31 1
  30   15   16 ar
  31   15   32 1
  32   16   17 ar
  33   16   33 1
  34   17   18 ar
  35   17   21 1
  36   18   34 1

#	End of record

