#	Name: ASD01883533
#	Creating user name:	WinNT
#	Creation time:	15. 06. 2019 19:46

#	Modifying user name:	WinNT
#	Modification time:	15. 06. 2019 19:46

#	Program:	/corina/corina34_cracker 3.40 0067  02.08.2006

@<TRIPOS>MOLECULE
ASD01883533
  48   51    0    0    0
SMALL
NO_CHARGES


@<TRIPOS>ATOM
   1 C1            -0.0171     1.4071     0.0098 C.2     
   2 C2            -0.8714     1.4200    -1.1135 C.2     
   3 C3            -2.0202     0.7128    -1.0899 C.2     
   4 N4            -2.3698    -0.0153     0.0040 N.am    
   5 C5            -1.5826    -0.0537     1.0949 C.2     
   6 C6            -0.3784     0.6578     1.1181 C.2     
   7 O7            -1.9183    -0.7151     2.0655 O.2     
   8 Cl8            0.6431     0.6130     2.5210 Cl      
   9 N9             1.1653     2.1265     0.0024 N.pl3   
  10 C10            1.1493     3.5921    -0.0998 C.3     
  11 C11            2.0460     4.0148    -1.2677 C.3     
  12 C12            3.4405     3.4132    -1.0786 C.3     
  13 C13            3.3425     1.8859    -1.0731 C.3     
  14 C14            2.4602     1.4395     0.1026 C.3     
  15 C15           -3.6251    -0.7706    -0.0049 C.3     
  16 C16            4.3351     3.8548    -2.2081 C.ar    
  17 C17            5.6512     3.4342    -2.2522 C.ar    
  18 C18            6.4719     3.8393    -3.2882 C.ar    
  19 C19            5.9763     4.6646    -4.2803 C.ar    
  20 C20            4.6600     5.0844    -4.2366 C.ar    
  21 C21            3.8381     4.6758    -3.2030 C.ar    
  22 C22           -3.3698    -2.1778    -0.5484 C.3     
  23 C23           -4.5382    -3.1655    -0.5286 C.3     
  24 C24           -4.0644    -2.5674    -1.8548 C.3     
  25 C25            4.0036     3.8731     0.2012 C.1     
  26 N26            4.4382     4.2281     1.1890 N.1     
  27 H27           -0.6067     1.9945    -1.9889 H       
  28 H28           -2.6711     0.7254    -1.9516 H       
  29 H29            0.1301     3.9347    -0.2790 H       
  30 H30            1.5257     4.0271     0.8260 H       
  31 H31            1.6184     3.6550    -2.2035 H       
  32 H32            2.1195     5.1020    -1.2950 H       
  33 H33            2.9026     1.5462    -2.0107 H       
  34 H34            4.3387     1.4579    -0.9618 H       
  35 H35            2.9459     1.6993     1.0432 H       
  36 H36            2.3053     0.3616     0.0546 H       
  37 H37           -4.0155    -0.8385     1.0105 H       
  38 H38           -4.3506    -0.2620    -0.6398 H       
  39 H39            6.0384     2.7894    -1.4771 H       
  40 H40            7.5003     3.5113    -3.3223 H       
  41 H41            6.6177     4.9817    -5.0893 H       
  42 H42            4.2729     5.7295    -5.0116 H       
  43 H43            2.8097     5.0038    -3.1689 H       
  44 H44           -2.3709    -2.5763    -0.3709 H       
  45 H45           -4.3078    -4.2138    -0.3385 H       
  46 H46           -5.4887    -2.8127    -0.1284 H       
  47 H47           -4.7033    -1.8211    -2.3271 H       
  48 H48           -3.5224    -3.2221    -2.5372 H       
@<TRIPOS>BOND
   1    1    2 1
   2    1    9 1
   3    1    6 2
   4    2    3 2
   5    2   27 1
   6    3    4 1
   7    3   28 1
   8    4    5 am
   9    4   15 1
  10    5    7 2
  11    5    6 1
  12    6    8 1
  13    9   10 1
  14    9   14 1
  15   10   11 1
  16   10   29 1
  17   10   30 1
  18   11   12 1
  19   11   31 1
  20   11   32 1
  21   12   13 1
  22   12   16 1
  23   12   25 1
  24   13   14 1
  25   13   33 1
  26   13   34 1
  27   14   35 1
  28   14   36 1
  29   15   22 1
  30   15   37 1
  31   15   38 1
  32   16   17 ar
  33   16   21 ar
  34   17   18 ar
  35   17   39 1
  36   18   19 ar
  37   18   40 1
  38   19   20 ar
  39   19   41 1
  40   20   21 ar
  41   20   42 1
  42   21   43 1
  43   22   23 1
  44   22   24 1
  45   22   44 1
  46   23   24 1
  47   23   45 1
  48   23   46 1
  49   24   47 1
  50   24   48 1
  51   25   26 3

#	End of record

