#	Name: ASD01940120
#	Creating user name:	WinNT
#	Creation time:	15. 06. 2019 20:11

#	Modifying user name:	WinNT
#	Modification time:	15. 06. 2019 20:11

#	Program:	/corina/corina34_cracker 3.40 0067  02.08.2006

@<TRIPOS>MOLECULE
ASD01940120
  47   49    0    0    0
SMALL
NO_CHARGES


@<TRIPOS>ATOM
   1 C1             1.1974     4.7185    -2.9371 C.3     
   2 C2             1.1802     3.3332    -2.2877 C.3     
   3 C3             2.0078     3.5754    -3.5515 C.3     
   4 S4            -0.2984     5.2508    -3.8145 S.o2    
   5 O5            -0.1262     6.5572    -4.3463 O.2     
   6 O6            -0.8083     4.1946    -4.6168 O.2     
   7 N7            -1.4314     5.4413    -2.6219 N.am    
   8 C8             1.9706     5.8260    -2.2184 C.3     
   9 C9             1.9482     7.0978    -3.0686 C.3     
  10 C10            2.7886     8.1806    -2.3888 C.3     
  11 O11            2.6763     9.4016    -3.1227 O.3     
  12 O12            2.4889     6.8164    -4.3611 O.3     
  13 C13           -1.7003     6.7170    -2.1082 C.ar    
  14 C14           -1.6049     6.9523    -0.7372 C.ar    
  15 C15           -1.8719     8.2181    -0.2339 C.ar    
  16 C16           -2.2321     9.2432    -1.0947 C.ar    
  17 C17           -2.3266     9.0069    -2.4552 C.ar    
  18 C18           -2.0561     7.7490    -2.9629 C.ar    
  19 N19           -1.2408     5.9135     0.1305 N.pl3   
  20 C20           -2.0874     4.8132     0.2979 C.ar    
  21 C21           -3.2974     4.9600     0.9693 C.ar    
  22 C22           -4.1315     3.8699     1.1322 C.ar    
  23 C23           -3.7636     2.6345     0.6286 C.ar    
  24 C24           -2.5614     2.4863    -0.0386 C.ar    
  25 C25           -1.7255     3.5731    -0.2104 C.ar    
  26 I26           -5.0306     0.9848     0.8783 I       
  27 F27           -3.6559     6.1660     1.4616 F       
  28 F28           -2.4920    10.4751    -0.6048 F       
  29 F29           -1.7812     8.4508     1.0938 F       
  30 H30            1.7198     3.2109    -1.3485 H       
  31 H31            0.2701     2.7417    -2.3877 H       
  32 H32            1.6422     3.1433    -4.4830 H       
  33 H33            3.0919     3.6125    -3.4438 H       
  34 H34           -1.9089     4.6698    -2.2789 H       
  35 H35            1.5057     6.0261    -1.2530 H       
  36 H36            3.0022     5.5089    -2.0662 H       
  37 H37            0.9209     7.4472    -3.1728 H       
  38 H38            2.4294     8.3340    -1.3712 H       
  39 H39            3.8323     7.8673    -2.3624 H       
  40 H40            3.2432    10.1122    -2.7930 H       
  41 H41            3.4026     6.5002    -4.3448 H       
  42 H42           -2.6082     9.8079    -3.1226 H       
  43 H43           -2.1261     7.5696    -4.0256 H       
  44 H44           -0.4015     5.9578     0.6148 H       
  45 H45           -5.0709     3.9824     1.6530 H       
  46 H46           -2.2773     1.5205    -0.4295 H       
  47 H47           -0.7890     3.4568    -0.7356 H       
@<TRIPOS>BOND
   1    1    2 1
   2    1    3 1
   3    1    4 1
   4    1    8 1
   5    2    3 1
   6    2   30 1
   7    2   31 1
   8    3   32 1
   9    3   33 1
  10    4    5 2
  11    4    6 2
  12    4    7 am
  13    7   13 1
  14    7   34 1
  15    8    9 1
  16    8   35 1
  17    8   36 1
  18    9   10 1
  19    9   12 1
  20    9   37 1
  21   10   11 1
  22   10   38 1
  23   10   39 1
  24   11   40 1
  25   12   41 1
  26   13   14 ar
  27   13   18 ar
  28   14   15 ar
  29   14   19 1
  30   15   16 ar
  31   15   29 1
  32   16   17 ar
  33   16   28 1
  34   17   18 ar
  35   17   42 1
  36   18   43 1
  37   19   20 1
  38   19   44 1
  39   20   21 ar
  40   20   25 ar
  41   21   22 ar
  42   21   27 1
  43   22   23 ar
  44   22   45 1
  45   23   24 ar
  46   23   26 1
  47   24   25 ar
  48   24   46 1
  49   25   47 1

#	End of record

