#	Name: ASD04550055
#	Creating user name:	WinNT
#	Creation time:	15. 06. 2019 20:49

#	Modifying user name:	WinNT
#	Modification time:	15. 06. 2019 20:49

#	Program:	/corina/corina34_cracker 3.40 0067  02.08.2006

@<TRIPOS>MOLECULE
ASD04550055
  38   39    0    0    0
SMALL
NO_CHARGES


@<TRIPOS>ATOM
   1 C1            -0.0167     1.3831     0.0096 C.ar    
   2 C2             0.0021    -0.0041     0.0020 C.ar    
   3 C3             1.2141    -0.6789    -0.0132 C.ar    
   4 C4             2.3989     0.0314    -0.0207 C.ar    
   5 C5             2.3774     1.4139    -0.0126 C.ar    
   6 C6             1.1708     2.0889     0.0021 C.ar    
   7 C7             3.6714     2.1863    -0.0198 C.3     
   8 C8             3.7284     3.0742    -1.2645 C.3     
   9 O9            -1.1648    -0.7006     0.0099 O.3     
  10 S10           -1.7101    -1.0105    -1.3769 S.o2    
  11 C11           -0.7239    -2.3076    -2.0473 C.ar    
  12 O12           -3.0096    -1.5526    -1.1851 O.2     
  13 O13           -1.4572     0.1387    -2.1735 O.2     
  14 C14           -1.0806    -3.6265    -1.8369 C.ar    
  15 C15           -0.3069    -4.6441    -2.3629 C.ar    
  16 C16            0.8233    -4.3429    -3.0996 C.ar    
  17 C17            1.1795    -3.0240    -3.3108 C.ar    
  18 C18            0.4034    -2.0063    -2.7885 C.ar    
  19 C19            1.6674    -5.4523    -3.6722 C.3     
  20 C20            3.7497     3.0468     1.2149 C.2     
  21 O21            2.8473     3.0341     2.0184 O.2     
  22 O22            4.8218     3.8273     1.4222 O.3     
  23 H23           -0.9590     1.9108     0.0170 H       
  24 H24            1.2314    -1.7588    -0.0188 H       
  25 H25            3.3426    -0.4935    -0.0325 H       
  26 H26            1.1567     3.1688     0.0084 H       
  27 H27            4.5100     1.4902    -0.0313 H       
  28 H28            4.6643     3.6329    -1.2698 H       
  29 H29            3.6718     2.4518    -2.1576 H       
  30 H30            2.8898     3.7703    -1.2530 H       
  31 H31           -1.9636    -3.8618    -1.2613 H       
  32 H32           -0.5852    -5.6745    -2.1979 H       
  33 H33            2.0627    -2.7887    -3.8861 H       
  34 H34            0.6817    -0.9759    -2.9535 H       
  35 H35            1.3071    -5.7054    -4.6693 H       
  36 H36            2.7052    -5.1248    -3.7332 H       
  37 H37            1.6004    -6.3292    -3.0282 H       
  38 H38            4.8268     4.3613     2.2283 H       
@<TRIPOS>BOND
   1    1    2 ar
   2    1    6 ar
   3    1   23 1
   4    2    3 ar
   5    2    9 1
   6    3    4 ar
   7    3   24 1
   8    4    5 ar
   9    4   25 1
  10    5    6 ar
  11    5    7 1
  12    6   26 1
  13    7    8 1
  14    7   20 1
  15    7   27 1
  16    8   28 1
  17    8   29 1
  18    8   30 1
  19    9   10 1
  20   10   11 1
  21   10   12 2
  22   10   13 2
  23   11   14 ar
  24   11   18 ar
  25   14   15 ar
  26   14   31 1
  27   15   16 ar
  28   15   32 1
  29   16   17 ar
  30   16   19 1
  31   17   18 ar
  32   17   33 1
  33   18   34 1
  34   19   35 1
  35   19   36 1
  36   19   37 1
  37   20   21 2
  38   20   22 1
  39   22   38 1

#	End of record

