#	Name: ASD01510105
#	Creating user name:	WinNT
#	Creation time:	15. 06. 2019 19:21

#	Modifying user name:	WinNT
#	Modification time:	15. 06. 2019 19:21

#	Program:	/corina/corina34_cracker 3.40 0067  02.08.2006

@<TRIPOS>MOLECULE
ASD01510105
  53   55    0    0    0
SMALL
NO_CHARGES


@<TRIPOS>ATOM
   1 C1             5.8682     1.9729     2.4332 C.3     
   2 C2             5.5956     0.6130     1.7872 C.3     
   3 C3             4.5607    -0.1279     2.5941 C.2     
   4 O4             4.0878     0.3815     3.5880 O.2     
   5 N5             4.1607    -1.3567     2.2113 N.am    
   6 C6             3.2717    -2.0837     3.0106 C.ar    
   7 C7             2.2627    -1.4263     3.7034 C.ar    
   8 C8             1.3839    -2.1431     4.4934 C.ar    
   9 C9             1.5055    -3.5148     4.5975 C.ar    
  10 C10            2.5130    -4.1792     3.9068 C.ar    
  11 C11            3.3934    -3.4623     3.1076 C.ar    
  12 S12            2.6682    -5.9293     4.0404 S.3     
  13 C13            3.8623    -6.1248     5.3211 C.ar    
  14 C14            4.3350    -5.0180     6.0185 C.ar    
  15 C15            5.2738    -5.2178     7.0179 C.ar    
  16 C16            5.7111    -6.5073     7.2910 C.ar    
  17 N17            5.2421    -7.5418     6.6087 N.ar    
  18 C18            4.3413    -7.3910     5.6525 C.ar    
  19 O19            3.8876    -8.4788     4.9787 O.3     
  20 C20            4.4267    -9.7472     5.3564 C.3     
  21 N21            6.6547    -6.7156     8.2943 N.3     
  22 C22            6.9804    -8.1429     8.4227 C.3     
  23 C23            8.0753    -8.3206     9.4772 C.3     
  24 N24            7.6111    -7.7719    10.7590 N.3     
  25 C25            7.2853    -6.3447    10.6306 C.3     
  26 C26            6.1904    -6.1669     9.5761 C.3     
  27 C27            8.6062    -7.9916    11.8171 C.3     
  28 H28            6.2363     1.8256     3.4485 H       
  29 H29            6.6167     2.5089     1.8495 H       
  30 H30            4.9459     2.5531     2.4616 H       
  31 H31            5.2275     0.7604     0.7718 H       
  32 H32            6.5179     0.0329     1.7587 H       
  33 H33            4.4891    -1.7371     1.3816 H       
  34 H34            2.1652    -0.3536     3.6249 H       
  35 H35            0.6006    -1.6293     5.0308 H       
  36 H36            0.8176    -4.0720     5.2162 H       
  37 H37            4.1770    -3.9755     2.5700 H       
  38 H38            3.9787    -4.0254     5.7861 H       
  39 H39            5.6615    -4.3798     7.5780 H       
  40 H40            3.9808   -10.5291     4.7416 H       
  41 H41            5.5067    -9.7412     5.2096 H       
  42 H42            4.2037    -9.9388     6.4060 H       
  43 H43            6.0900    -8.6932     8.7267 H       
  44 H44            7.3336    -8.5230     7.4642 H       
  45 H45            8.2981    -9.3811     9.5950 H       
  46 H46            8.9747    -7.7927     9.1601 H       
  47 H47            6.9321    -5.9646    11.5892 H       
  48 H48            8.1757    -5.7944    10.3266 H       
  49 H49            5.9676    -5.1065     9.4584 H       
  50 H50            5.2910    -6.6948     9.8932 H       
  51 H51            9.5405    -7.5008    11.5447 H       
  52 H52            8.2373    -7.5760    12.7548 H       
  53 H53            8.7790    -9.0611    11.9368 H       
@<TRIPOS>BOND
   1    1    2 1
   2    1   28 1
   3    1   29 1
   4    1   30 1
   5    2    3 1
   6    2   31 1
   7    2   32 1
   8    3    4 2
   9    3    5 am
  10    5    6 1
  11    5   33 1
  12    6    7 ar
  13    6   11 ar
  14    7    8 ar
  15    7   34 1
  16    8    9 ar
  17    8   35 1
  18    9   10 ar
  19    9   36 1
  20   10   11 ar
  21   10   12 1
  22   11   37 1
  23   12   13 1
  24   13   14 ar
  25   13   18 ar
  26   14   15 ar
  27   14   38 1
  28   15   16 ar
  29   15   39 1
  30   16   17 ar
  31   16   21 1
  32   17   18 ar
  33   18   19 1
  34   19   20 1
  35   20   40 1
  36   20   41 1
  37   20   42 1
  38   21   22 1
  39   21   26 1
  40   22   23 1
  41   22   43 1
  42   22   44 1
  43   23   24 1
  44   23   45 1
  45   23   46 1
  46   24   25 1
  47   24   27 1
  48   25   26 1
  49   25   47 1
  50   25   48 1
  51   26   49 1
  52   26   50 1
  53   27   51 1
  54   27   52 1
  55   27   53 1

#	End of record

