#	Name: ASD01940506
#	Creating user name:	WinNT
#	Creation time:	15. 06. 2019 20:12

#	Modifying user name:	WinNT
#	Modification time:	15. 06. 2019 20:12

#	Program:	/corina/corina34_cracker 3.40 0067  02.08.2006

@<TRIPOS>MOLECULE
ASD01940506
  36   38    0    0    0
SMALL
NO_CHARGES


@<TRIPOS>ATOM
   1 C1             0.6037     0.4674    -1.4414 C.ar    
   2 C2            -0.0886    -0.0408    -0.3577 C.ar    
   3 C3             0.4475     0.0503     0.9155 C.ar    
   4 C4             1.6806     0.6519     1.1096 C.ar    
   5 C5             2.3803     1.1639     0.0251 C.ar    
   6 C6             1.8386     1.0706    -1.2559 C.ar    
   7 N7             2.5405     1.5852    -2.3541 N.am    
   8 S8             1.7186     2.0815    -3.7034 S.o2    
   9 C9             0.7945     3.5441    -3.1580 C.3     
  10 O10            2.7400     2.4502    -4.6200 O.2     
  11 O11            0.8315     1.0085    -3.9878 O.2     
  12 F12           -0.2332    -0.4479     1.9709 F       
  13 F13            2.2015     0.7405     2.3530 F       
  14 N14            3.6278     1.7735     0.2179 N.pl3   
  15 C15            4.8012     1.0347     0.0424 C.ar    
  16 C16            6.0321     1.5943     0.3672 C.ar    
  17 C17            4.7399    -0.2618    -0.4514 C.ar    
  18 C18            5.9013    -0.9898    -0.6234 C.ar    
  19 C19            7.1250    -0.4291    -0.3045 C.ar    
  20 C20            7.1899     0.8609     0.1929 C.ar    
  21 Cl21           6.1138     3.2124     0.9905 Cl      
  22 Br22           8.7119    -1.4297    -0.5417 Br      
  23 C23           -0.1721     4.1822    -4.1577 C.3     
  24 C24           -0.7158     3.3938    -2.9645 C.3     
  25 H25            0.1844     0.3905    -2.4337 H       
  26 H26           -1.0503    -0.5097    -0.5048 H       
  27 H27            3.5079     1.6508    -2.3240 H       
  28 H28            1.3258     4.2089    -2.4770 H       
  29 H29            3.6766     2.7080     0.4731 H       
  30 H30            3.7850    -0.7007    -0.7004 H       
  31 H31            5.8538    -1.9983    -1.0071 H       
  32 H32            8.1467     1.2960     0.4410 H       
  33 H33           -0.2770     5.2669    -4.1341 H       
  34 H34           -0.2527     3.7233    -5.1430 H       
  35 H35           -1.1540     2.4161    -3.1649 H       
  36 H36           -1.1784     3.9598    -2.1559 H       
@<TRIPOS>BOND
   1    1    2 ar
   2    1    6 ar
   3    1   25 1
   4    2    3 ar
   5    2   26 1
   6    3    4 ar
   7    3   12 1
   8    4    5 ar
   9    4   13 1
  10    5    6 ar
  11    5   14 1
  12    6    7 1
  13    7    8 am
  14    7   27 1
  15    8    9 1
  16    8   10 2
  17    8   11 2
  18    9   23 1
  19    9   24 1
  20    9   28 1
  21   14   15 1
  22   14   29 1
  23   15   16 ar
  24   15   17 ar
  25   16   21 1
  26   16   20 ar
  27   17   18 ar
  28   17   30 1
  29   18   19 ar
  30   18   31 1
  31   19   20 ar
  32   19   22 1
  33   20   32 1
  34   23   24 1
  35   23   33 1
  36   23   34 1
  37   24   35 1
  38   24   36 1

#	End of record

