#	Name: ASD03330190
#	Creating user name:	WinNT
#	Creation time:	15. 06. 2019 20:36

#	Modifying user name:	WinNT
#	Modification time:	15. 06. 2019 20:36

#	Program:	/corina/corina34_cracker 3.40 0067  02.08.2006

@<TRIPOS>MOLECULE
ASD03330190
  55   58    0    0    0
SMALL
NO_CHARGES


@<TRIPOS>ATOM
   1 C1             0.6834     0.5085     3.1963 C.ar    
   2 C2             0.3999    -0.2746     2.0927 C.ar    
   3 C3             1.4235    -0.7224     1.2805 C.ar    
   4 C4             2.7382    -0.3854     1.5733 C.ar    
   5 C5             3.0197     0.4014     2.6827 C.ar    
   6 C6             1.9919     0.8460     3.4908 C.ar    
   7 N7             3.7775    -0.8378     0.7528 N.am    
   8 C8             4.9149    -0.1222     0.6495 C.2     
   9 N9             5.9559    -0.6091    -0.0546 N.am    
  10 O10            5.0018     0.9628     1.1915 O.2     
  11 C11            7.0964     0.1776    -0.2519 C.ar    
  12 C12            8.3516    -0.4110    -0.2622 C.ar    
  13 C13            9.4837     0.3760    -0.4589 C.ar    
  14 C14            9.3485     1.7507    -0.6443 C.ar    
  15 C15            8.0948     2.3292    -0.6327 C.ar    
  16 C16            6.9707     1.5483    -0.4433 C.ar    
  17 C17           10.8298    -0.2472    -0.4705 C.ar    
  18 N18           10.9493    -1.5576    -0.2926 N.ar    
  19 C19           11.9547     0.5462    -0.6734 C.ar    
  20 C20           13.2083    -0.0460    -0.6830 C.ar    
  21 C21           13.2965    -1.4136    -0.4891 C.ar    
  22 C22           12.1315    -2.1509    -0.2967 C.ar    
  23 N23           12.2118    -3.5246    -0.1009 N.3     
  24 C24           10.8717    -4.1115     0.0822 C.3     
  25 C25           10.7002    -5.2042    -0.9940 C.3     
  26 C26           12.1635    -5.5646    -1.3623 C.3     
  27 C27           12.8625    -4.1867    -1.2516 C.3     
  28 C28            1.2550    -3.0534     0.4513 C.3     
  29 C29            1.1137    -1.5764     0.0780 C.3     
  30 H30           -0.1191     0.8612     3.8273 H       
  31 H31           -0.6229    -0.5367     1.8656 H       
  32 H32            4.0413     0.6650     2.9134 H       
  33 H33            2.2101     1.4578     4.3536 H       
  34 H34            3.6794    -1.6666     0.2583 H       
  35 H35            5.9146    -1.5048    -0.4245 H       
  36 H36            8.4512    -1.4767    -0.1177 H       
  37 H37           10.2245     2.3637    -0.7967 H       
  38 H38            7.9922     3.3947    -0.7766 H       
  39 H39            5.9923     2.0056    -0.4355 H       
  40 H40           11.8524     1.6110    -0.8221 H       
  41 H41           14.0972     0.5473    -0.8388 H       
  42 H42           14.2587    -1.9042    -0.4915 H       
  43 H43           10.7930    -4.5536     1.0754 H       
  44 H44           10.1096    -3.3427    -0.0453 H       
  45 H45           10.1814    -6.0708    -0.5841 H       
  46 H46           10.1701    -4.8110    -1.8614 H       
  47 H47           12.5826    -6.2736    -0.6483 H       
  48 H48           12.2259    -5.9535    -2.3787 H       
  49 H49           12.7054    -3.6073    -2.1614 H       
  50 H50           13.9281    -4.3159    -1.0622 H       
  51 H51            1.0310    -3.6710    -0.4184 H       
  52 H52            2.2751    -3.2484     0.7824 H       
  53 H53            0.5598    -3.2929     1.2559 H       
  54 H54            0.0937    -1.3813    -0.2531 H       
  55 H55            1.8089    -1.3368    -0.7266 H       
@<TRIPOS>BOND
   1    1    2 ar
   2    1    6 ar
   3    1   30 1
   4    2    3 ar
   5    2   31 1
   6    3    4 ar
   7    3   29 1
   8    4    5 ar
   9    4    7 1
  10    5    6 ar
  11    5   32 1
  12    6   33 1
  13    7    8 am
  14    7   34 1
  15    8    9 am
  16    8   10 2
  17    9   11 1
  18    9   35 1
  19   11   12 ar
  20   11   16 ar
  21   12   13 ar
  22   12   36 1
  23   13   14 ar
  24   13   17 1
  25   14   15 ar
  26   14   37 1
  27   15   16 ar
  28   15   38 1
  29   16   39 1
  30   17   18 ar
  31   17   19 ar
  32   18   22 ar
  33   19   20 ar
  34   19   40 1
  35   20   21 ar
  36   20   41 1
  37   21   22 ar
  38   21   42 1
  39   22   23 1
  40   23   24 1
  41   23   27 1
  42   24   25 1
  43   24   43 1
  44   24   44 1
  45   25   26 1
  46   25   45 1
  47   25   46 1
  48   26   27 1
  49   26   47 1
  50   26   48 1
  51   27   49 1
  52   27   50 1
  53   28   29 1
  54   28   51 1
  55   28   52 1
  56   28   53 1
  57   29   54 1
  58   29   55 1

#	End of record

