#	Name: ASD00060015
#	Creating user name:	WinNT
#	Creation time:	15. 06. 2019 18:29

#	Modifying user name:	WinNT
#	Modification time:	15. 06. 2019 18:29

#	Program:	/corina/corina34_cracker 3.40 0067  02.08.2006

@<TRIPOS>MOLECULE
ASD00060015
  33   34    0    0    0
SMALL
NO_CHARGES


@<TRIPOS>ATOM
   1 C1            -0.0169     1.3943     0.0097 C.ar    
   2 C2             0.0021    -0.0041     0.0020 C.ar    
   3 C3            -1.1847    -0.7060     0.0095 C.ar    
   4 C4            -2.3925    -0.0303     0.0246 C.ar    
   5 C5            -2.4196     1.3535     0.0319 C.ar    
   6 C6            -1.2414     2.0697     0.0309 C.ar    
   7 C7             1.2453     2.1512     0.0017 C.2     
   8 C8             1.6191     3.0054     1.1856 C.3     
   9 S9             0.6176     4.5179     1.1803 S.3     
  10 C10            1.1856     5.3744     2.6115 C.ar    
  11 C11            2.0676     2.0804    -1.0655 C.2     
  12 C12            0.6392     6.6070     2.9479 C.ar    
  13 C13            1.0861     7.2756     4.0704 C.ar    
  14 C14            2.0775     6.7196     4.8598 C.ar    
  15 C15            2.6238     5.4922     4.5274 C.ar    
  16 C16            2.1770     4.8161     3.4093 C.ar    
  17 Cl17           2.6376     7.5637     6.2696 Cl      
  18 C18            1.7048     1.2515    -2.2143 C.2     
  19 O19            2.5271     1.1807    -3.2815 O.3     
  20 O20            0.6618     0.6260    -2.2077 O.2     
  21 H21            0.9438    -0.5327    -0.0101 H       
  22 H22           -1.1717    -1.7859     0.0033 H       
  23 H23           -3.3187    -0.5858     0.0305 H       
  24 H24           -3.3661     1.8735     0.0433 H       
  25 H25           -1.2641     3.1494     0.0369 H       
  26 H26            1.4353     2.4512     2.1060 H       
  27 H27            2.6751     3.2687     1.1247 H       
  28 H28            2.9938     2.6358    -1.0714 H       
  29 H29           -0.1341     7.0417     2.3319 H       
  30 H30            0.6617     8.2336     4.3323 H       
  31 H31            3.3976     5.0610     5.1452 H       
  32 H32            2.6033     3.8581     3.1506 H       
  33 H33            2.2029     0.6086    -3.9905 H       
@<TRIPOS>BOND
   1    1    2 ar
   2    1    7 1
   3    1    6 ar
   4    2    3 ar
   5    2   21 1
   6    3    4 ar
   7    3   22 1
   8    4    5 ar
   9    4   23 1
  10    5    6 ar
  11    5   24 1
  12    6   25 1
  13    7    8 1
  14    7   11 2
  15    8    9 1
  16    8   26 1
  17    8   27 1
  18    9   10 1
  19   10   12 ar
  20   10   16 ar
  21   11   18 1
  22   11   28 1
  23   12   13 ar
  24   12   29 1
  25   13   14 ar
  26   13   30 1
  27   14   15 ar
  28   14   17 1
  29   15   16 ar
  30   15   31 1
  31   16   32 1
  32   18   19 1
  33   18   20 2
  34   19   33 1

#	End of record

