#	Name: ASD01028055
#	Creating user name:	WinNT
#	Creation time:	15. 06. 2019 18:56

#	Modifying user name:	WinNT
#	Modification time:	15. 06. 2019 18:56

#	Program:	/corina/corina34_cracker 3.40 0067  02.08.2006

@<TRIPOS>MOLECULE
ASD01028055
  94   99    0    0    0
SMALL
NO_CHARGES


@<TRIPOS>ATOM
   1 C1            -0.0836     1.3788     0.1744 C.3     
   2 C2            -0.0153    -0.1489     0.1792 C.3     
   3 C3            -0.5892    -0.6869     1.4898 C.3     
   4 C4             1.8370     2.2599     1.3169 C.2     
   5 N5             1.2960     1.9233     0.1039 N.am    
   6 N6             3.8190     2.6358     2.6818 N.3     
   7 N7             3.1336    -1.1394     4.3305 N.pl3   
   8 C8             4.1098    -0.3437     4.9034 C.ar    
   9 C9             4.2629     0.9388     4.3888 C.ar    
  10 C10            3.3582     1.3739     3.2653 C.3     
  11 C11            4.9091    -0.7675     5.9619 C.ar    
  12 C12            5.8690     0.0899     6.4806 C.ar    
  13 C13            6.0279     1.3631     5.9445 C.ar    
  14 C14            5.2238     1.7819     4.9017 C.ar    
  15 O15           -0.7594    -2.1020     1.4107 O.3     
  16 C16           -0.0137    -2.8638     2.2521 C.ar    
  17 C17            1.0186    -2.2743     2.9315 C.ar    
  18 C18            1.8021    -3.0485     3.7956 C.ar    
  19 C19            2.8841    -2.4666     4.5151 C.ar    
  20 N20            3.5863    -3.2508     5.3148 N.ar    
  21 O21            4.9398    -1.9417     6.6501 O.3     
  22 C22            5.9239    -1.8128     7.6811 C.3     
  23 O23            6.5231    -0.5259     7.5024 O.3     
  24 C24           -0.2950    -4.2250     2.4220 C.ar    
  25 C25            0.4700    -5.0030     3.2659 C.ar    
  26 C26            1.5356    -4.4262     3.9676 C.ar    
  27 N27            2.3206    -5.1285     4.8009 N.ar    
  28 C28            3.3026    -4.5374     5.4417 C.ar    
  29 O29           -1.3331    -4.7856     1.7486 O.3     
  30 C30           -1.5697    -6.1783     1.9638 C.3     
  31 C31           -2.7696    -6.6270     1.1273 C.3     
  32 C32           -3.0229    -8.1182     1.3577 C.3     
  33 N33           -4.1750    -8.5491     0.5546 N.3     
  34 C34           -4.3048   -10.0129     0.5628 C.3     
  35 C35           -5.5588   -10.4155    -0.2168 C.3     
  36 N36           -5.4624    -9.9059    -1.5918 N.3     
  37 C37           -5.3326    -8.4421    -1.5999 C.3     
  38 C38           -4.0786    -8.0395    -0.8204 C.3     
  39 C39           -6.6145   -10.3367    -2.3949 C.3     
  40 C40           -6.6115    -9.5921    -3.7315 C.3     
  41 C41            3.2214     2.8527     1.3556 C.3     
  42 C42            3.5369     3.7654     3.5776 C.3     
  43 C43            4.0923     2.1844     0.2899 C.3     
  44 O44            1.2122     2.0840     2.3414 O.2     
  45 N45           -7.7605   -10.0218    -4.5324 N.am    
  46 C46           -7.9629    -9.4960    -5.7567 C.2     
  47 C47           -9.1448    -9.9379    -6.5806 C.3     
  48 O48           -7.1939    -8.6671    -6.1954 O.2     
  49 H49           -0.6535     1.7158    -0.6915 H       
  50 H50           -0.5664     1.7253     1.0881 H       
  51 H51           -0.5936    -0.5404    -0.6576 H       
  52 H52            1.0231    -0.4657     0.0811 H       
  53 H53            0.0928    -0.4504     2.3066 H       
  54 H54           -1.5542    -0.2173     1.6810 H       
  55 H55            1.7751     2.0315    -0.7324 H       
  56 H56            2.5418    -0.6879     3.7085 H       
  57 H57            2.3469     1.5054     3.6502 H       
  58 H58            3.3497     0.6043     2.4935 H       
  59 H59            6.7812     2.0259     6.3440 H       
  60 H60            5.3491     2.7716     4.4880 H       
  61 H61            1.2266    -1.2225     2.8017 H       
  62 H62            5.4503    -1.8730     8.6610 H       
  63 H63            6.6771    -2.5942     7.5802 H       
  64 H64            0.2474    -6.0530     3.3856 H       
  65 H65            3.9115    -5.1325     6.1062 H       
  66 H66           -0.6878    -6.7466     1.6681 H       
  67 H67           -1.7771    -6.3528     3.0195 H       
  68 H68           -3.6515    -6.0588     1.4230 H       
  69 H69           -2.5622    -6.4526     0.0715 H       
  70 H70           -2.1410    -8.6865     1.0620 H       
  71 H71           -3.2303    -8.2927     2.4135 H       
  72 H72           -3.4270   -10.4584     0.0947 H       
  73 H73           -4.3871   -10.3649     1.5911 H       
  74 H74           -5.6414   -11.5022    -0.2367 H       
  75 H75           -6.4392    -9.9924     0.2670 H       
  76 H76           -5.2503    -8.0900    -2.6282 H       
  77 H77           -6.2104    -7.9965    -1.1319 H       
  78 H78           -3.9960    -6.9528    -0.8005 H       
  79 H79           -3.1982    -8.4626    -1.3041 H       
  80 H80           -6.5501   -11.4095    -2.5764 H       
  81 H81           -7.5360   -10.1140    -1.8570 H       
  82 H82           -6.6760    -8.5193    -3.5499 H       
  83 H83           -5.6900    -9.8149    -4.2694 H       
  84 H84            3.1626     3.9225     1.1554 H       
  85 H85            2.4654     3.9655     3.5835 H       
  86 H86            3.8662     3.5196     4.5872 H       
  87 H87            4.0697     4.6492     3.2267 H       
  88 H88            4.1550     1.1148     0.4902 H       
  89 H89            3.6502     2.3446    -0.6934 H       
  90 H90            5.0922     2.6176     0.3137 H       
  91 H91           -8.3756   -10.6847    -4.1816 H       
  92 H92          -10.0663    -9.7152    -6.0427 H       
  93 H93           -9.1427    -9.4075    -7.5328 H       
  94 H94           -9.0803   -11.0108    -6.7622 H       
@<TRIPOS>BOND
   1    1    2 1
   2    1    5 1
   3    1   49 1
   4    1   50 1
   5    2    3 1
   6    2   51 1
   7    2   52 1
   8    3   15 1
   9    3   53 1
  10    3   54 1
  11    4    5 am
  12    4   44 2
  13    4   41 1
  14    5   55 1
  15    6   41 1
  16    6   42 1
  17    6   10 1
  18    7    8 1
  19    7   19 1
  20    7   56 1
  21    8    9 ar
  22    8   11 ar
  23    9   10 1
  24    9   14 ar
  25   10   57 1
  26   10   58 1
  27   11   12 ar
  28   11   21 1
  29   12   13 ar
  30   12   23 1
  31   13   14 ar
  32   13   59 1
  33   14   60 1
  34   15   16 1
  35   16   17 ar
  36   16   24 ar
  37   17   18 ar
  38   17   61 1
  39   18   19 ar
  40   18   26 ar
  41   19   20 ar
  42   20   28 ar
  43   21   22 1
  44   22   23 1
  45   22   62 1
  46   22   63 1
  47   24   25 ar
  48   24   29 1
  49   25   26 ar
  50   25   64 1
  51   26   27 ar
  52   27   28 ar
  53   28   65 1
  54   29   30 1
  55   30   31 1
  56   30   66 1
  57   30   67 1
  58   31   32 1
  59   31   68 1
  60   31   69 1
  61   32   33 1
  62   32   70 1
  63   32   71 1
  64   33   34 1
  65   33   38 1
  66   34   35 1
  67   34   72 1
  68   34   73 1
  69   35   36 1
  70   35   74 1
  71   35   75 1
  72   36   37 1
  73   36   39 1
  74   37   38 1
  75   37   76 1
  76   37   77 1
  77   38   78 1
  78   38   79 1
  79   39   40 1
  80   39   80 1
  81   39   81 1
  82   40   45 1
  83   40   82 1
  84   40   83 1
  85   41   43 1
  86   41   84 1
  87   42   85 1
  88   42   86 1
  89   42   87 1
  90   43   88 1
  91   43   89 1
  92   43   90 1
  93   45   46 am
  94   45   91 1
  95   46   47 1
  96   46   48 2
  97   47   92 1
  98   47   93 1
  99   47   94 1

#	End of record

