#	Name: ASD03331436
#	Creating user name:	WinNT
#	Creation time:	15. 06. 2019 20:39

#	Modifying user name:	WinNT
#	Modification time:	15. 06. 2019 20:39

#	Program:	/corina/corina34_cracker 3.40 0067  02.08.2006

@<TRIPOS>MOLECULE
ASD03331436
  80   84    0    0    0
SMALL
NO_CHARGES


@<TRIPOS>ATOM
   1 N1            -0.3508     1.1920    -1.3926 N.am    
   2 C2            -0.6333    -0.1692    -1.8683 C.3     
   3 C3            -1.4274    -0.0799    -3.1753 C.3     
   4 C4            -0.6607     0.7888    -4.1750 C.3     
   5 C5            -0.5018     2.2018    -3.6089 C.3     
   6 C6             0.3028     2.1384    -2.3069 C.3     
   7 C7             0.7004     0.1901    -4.4200 C.2     
   8 O8             1.6538     0.9127    -4.6197 O.2     
   9 N9             0.8583    -1.1484    -4.4171 N.am    
  10 N10           -1.4034     0.8495    -5.4410 N.3     
  11 C11           -0.6788     1.6557    -6.4406 C.3     
  12 C12           -0.4592     0.7602    -7.6780 C.3     
  13 C13           -1.5666    -0.3164    -7.5313 C.3     
  14 C14           -1.6185    -0.5044    -5.9945 C.3     
  15 F15           -0.6351     1.4932    -8.8566 F       
  16 F16            0.8098     0.1723    -7.6443 F       
  17 C17           -0.6900     1.5670    -0.1433 C.2     
  18 O18           -1.3190     0.8086     0.5696 O.2     
  19 N19           -0.3683     4.8870     1.3236 N.pl3   
  20 C20           -1.1032     3.7838     1.0396 C.2     
  21 C21           -0.2988     2.8954     0.3586 C.2     
  22 C22            0.9777     3.5028     0.2326 C.2     
  23 C23            0.9048     4.7187     0.8317 C.2     
  24 C24           -2.5490     3.5664     1.4050 C.3     
  25 C25           -3.4436     4.0851     0.2773 C.3     
  26 C26           -4.9114     3.8644     0.6482 C.3     
  27 N27           -5.7680     4.3609    -0.4315 N.am    
  28 S28           -7.3659     3.9295    -0.4858 S.o2    
  29 O29           -7.8605     4.5636    -1.6573 O.2     
  30 O30           -7.3505     2.5132    -0.3703 O.2     
  31 C31           -8.0884     4.6814     0.9984 C.3     
  32 C32            2.0086     5.6972     0.9377 C.ar    
  33 C33            3.2552     5.2980     1.4251 C.ar    
  34 C34            4.2814     6.2163     1.5212 C.ar    
  35 C35            4.0763     7.5303     1.1355 C.ar    
  36 C36            2.8425     7.9313     0.6521 C.ar    
  37 C37            1.8106     7.0215     0.5460 C.ar    
  38 Cl38           5.3715     8.6796     1.2591 Cl      
  39 Cl39           3.5132     3.6511     1.9095 Cl      
  40 C40           -0.8333     6.0203     2.0045 C.ar    
  41 C41           -0.3523     6.3153     3.2731 C.ar    
  42 C42           -0.8118     7.4330     3.9419 C.ar    
  43 C43           -1.7507     8.2584     3.3486 C.ar    
  44 C44           -2.2320     7.9662     2.0844 C.ar    
  45 C45           -1.7714     6.8529     1.4092 C.ar    
  46 Cl46          -2.3263     9.6625     4.1917 Cl      
  47 H47            0.3042    -0.6962    -2.0456 H       
  48 H48           -1.2193    -0.7033    -1.1204 H       
  49 H49           -1.5606    -1.0795    -3.5890 H       
  50 H50           -2.4025     0.3659    -2.9788 H       
  51 H51            0.0239     2.8262    -4.3314 H       
  52 H52           -1.4856     2.6261    -3.4084 H       
  53 H53            0.3345     3.1267    -1.8484 H       
  54 H54            1.3167     1.7995    -2.5200 H       
  55 H55            0.0866    -1.7275    -4.3176 H       
  56 H56            1.7436    -1.5325    -4.5145 H       
  57 H57           -1.2725     2.5277    -6.7146 H       
  58 H58            0.2828     1.9713    -6.0359 H       
  59 H59           -2.5200     0.0496    -7.9123 H       
  60 H60           -1.2789    -1.2428    -8.0284 H       
  61 H61           -0.8265    -1.1782    -5.6677 H       
  62 H62           -2.5929    -0.8877    -5.6918 H       
  63 H63            1.8450     3.0771    -0.2501 H       
  64 H64           -2.7304     2.5018     1.5522 H       
  65 H65           -2.7760     4.1044     2.3254 H       
  66 H66           -3.2621     5.1497     0.1300 H       
  67 H67           -3.2166     3.5471    -0.6431 H       
  68 H68           -5.0929     2.7997     0.7955 H       
  69 H69           -5.1384     4.4023     1.5687 H       
  70 H70           -5.3992     4.9425    -1.1147 H       
  71 H71           -7.9574     5.7628     0.9584 H       
  72 H72           -9.1517     4.4458     1.0443 H       
  73 H73           -7.5905     4.2876     1.8844 H       
  74 H74            5.2458     5.9094     1.8982 H       
  75 H75            2.6887     8.9577     0.3533 H       
  76 H76            0.8502     7.3349     0.1642 H       
  77 H77            0.3802     5.6712     3.7367 H       
  78 H78           -0.4382     7.6627     4.9288 H       
  79 H79           -2.9650     8.6118     1.6236 H       
  80 H80           -2.1436     6.6280     0.4207 H       
@<TRIPOS>BOND
   1    1    2 1
   2    1    6 1
   3    1   17 am
   4    2    3 1
   5    2   47 1
   6    2   48 1
   7    3    4 1
   8    3   49 1
   9    3   50 1
  10    4    5 1
  11    4    7 1
  12    4   10 1
  13    5    6 1
  14    5   51 1
  15    5   52 1
  16    6   53 1
  17    6   54 1
  18    7    8 2
  19    7    9 am
  20    9   55 1
  21    9   56 1
  22   10   11 1
  23   10   14 1
  24   11   12 1
  25   11   57 1
  26   11   58 1
  27   12   13 1
  28   12   15 1
  29   12   16 1
  30   13   14 1
  31   13   59 1
  32   13   60 1
  33   14   61 1
  34   14   62 1
  35   17   18 2
  36   17   21 1
  37   19   20 1
  38   19   23 1
  39   19   40 1
  40   20   21 2
  41   20   24 1
  42   21   22 1
  43   22   23 2
  44   22   63 1
  45   23   32 1
  46   24   25 1
  47   24   64 1
  48   24   65 1
  49   25   26 1
  50   25   66 1
  51   25   67 1
  52   26   27 1
  53   26   68 1
  54   26   69 1
  55   27   28 am
  56   27   70 1
  57   28   29 2
  58   28   30 2
  59   28   31 1
  60   31   71 1
  61   31   72 1
  62   31   73 1
  63   32   33 ar
  64   32   37 ar
  65   33   34 ar
  66   33   39 1
  67   34   35 ar
  68   34   74 1
  69   35   36 ar
  70   35   38 1
  71   36   37 ar
  72   36   75 1
  73   37   76 1
  74   40   41 ar
  75   40   45 ar
  76   41   42 ar
  77   41   77 1
  78   42   43 ar
  79   42   78 1
  80   43   44 ar
  81   43   46 1
  82   44   45 ar
  83   44   79 1
  84   45   80 1

#	End of record

