#	Name: ASD05250059
#	Creating user name:	WinNT
#	Creation time:	15. 06. 2019 20:58

#	Modifying user name:	WinNT
#	Modification time:	15. 06. 2019 20:58

#	Program:	/corina/corina34_cracker 3.40 0067  02.08.2006

@<TRIPOS>MOLECULE
ASD05250059
  31   34    0    0    0
SMALL
NO_CHARGES


@<TRIPOS>ATOM
   1 C1            -0.0167     1.3782     0.0096 C.ar    
   2 C2             0.0021    -0.0041     0.0020 C.ar    
   3 C3             1.2046    -0.6791    -0.0290 C.ar    
   4 C4             2.4056     0.0280    -0.0534 C.ar    
   5 C5             2.3820     1.4188    -0.0128 C.ar    
   6 C6             1.1694     2.0864     0.0021 C.ar    
   7 N7             3.7795     0.0332    -0.1498 N.am    
   8 C8             3.8836     1.4996     0.0343 C.3     
   9 C9             4.8547    -0.7817    -0.3711 C.2     
  10 S10            6.3527     0.1712    -0.5136 S.3     
  11 C11            5.7507     1.4917    -1.5905 C.3     
  12 N12            4.5199     2.1157    -1.1259 N.3     
  13 C13            7.7721     2.4751    -2.6913 C.ar    
  14 C14            6.8174     2.5511    -1.6945 C.ar    
  15 C15            8.7506     3.4469    -2.7868 C.ar    
  16 C16            8.7743     4.4947    -1.8854 C.ar    
  17 C17            7.8194     4.5709    -0.8888 C.ar    
  18 C18            6.8409     3.5991    -0.7934 C.ar    
  19 O19            4.7963    -1.9934    -0.4582 O.2     
  20 H20           -0.9595     1.9049     0.0169 H       
  21 H21           -0.9260    -0.5561     0.0207 H       
  22 H22            1.2156    -1.7590    -0.0340 H       
  23 H23            1.1505     3.1662     0.0079 H       
  24 H24            4.2946     1.8156     0.9931 H       
  25 H25            5.5775     1.0783    -2.5841 H       
  26 H26            3.8621     2.2258    -1.8831 H       
  27 H27            7.7562     1.6541    -3.3929 H       
  28 H28            9.4967     3.3874    -3.5654 H       
  29 H29            9.5392     5.2536    -1.9595 H       
  30 H30            7.8379     5.3895    -0.1845 H       
  31 H31            6.0950     3.6584    -0.0146 H       
@<TRIPOS>BOND
   1    1    2 ar
   2    1    6 ar
   3    1   20 1
   4    2    3 ar
   5    2   21 1
   6    3    4 ar
   7    3   22 1
   8    4    5 ar
   9    4    7 1
  10    5    6 ar
  11    5    8 1
  12    6   23 1
  13    7    8 1
  14    7    9 am
  15    8   12 1
  16    8   24 1
  17    9   10 1
  18    9   19 2
  19   10   11 1
  20   11   12 1
  21   11   14 1
  22   11   25 1
  23   12   26 1
  24   13   14 ar
  25   13   15 ar
  26   13   27 1
  27   14   18 ar
  28   15   16 ar
  29   15   28 1
  30   16   17 ar
  31   16   29 1
  32   17   18 ar
  33   17   30 1
  34   18   31 1

#	End of record

