#	Name: ASD03430036
#	Creating user name:	WinNT
#	Creation time:	15. 06. 2019 20:40

#	Modifying user name:	WinNT
#	Modification time:	15. 06. 2019 20:40

#	Program:	/corina/corina34_cracker 3.40 0067  02.08.2006

@<TRIPOS>MOLECULE
ASD03430036
  43   47    0    0    0
SMALL
NO_CHARGES


@<TRIPOS>ATOM
   1 C1             0.3459     1.1917    -0.4652 C.ar    
   2 C2             0.3272    -0.1905    -0.3594 C.ar    
   3 C3             1.5049    -0.8908    -0.2043 C.ar    
   4 C4             2.7237    -0.2219    -0.1414 C.ar    
   5 C5             2.7392     1.1648    -0.2526 C.ar    
   6 C6             1.5581     1.8698    -0.4125 C.ar    
   7 O7             3.7566    -1.0932     0.0428 O.3     
   8 C8             1.8147    -2.3589    -0.0859 C.3     
   9 C9             3.3302    -2.4197    -0.3223 C.3     
  10 C10            0.5528    -3.9596     0.9910 C.ar    
  11 C11            1.4339    -2.9173     1.2526 C.ar    
  12 C12            1.0613    -3.1837    -1.0897 C.2     
  13 N13            0.3557    -4.0917    -0.3864 N.am    
  14 O14            1.0832    -3.0574    -2.2958 O.2     
  15 C15            1.7794    -2.5966     2.5633 C.ar    
  16 C16            1.2354    -3.3312     3.6235 C.ar    
  17 C17            0.3626    -4.3657     3.3597 C.ar    
  18 C18            0.0213    -4.6812     2.0589 C.ar    
  19 C19           -0.5163    -5.0995    -0.9948 C.3     
  20 O20           -0.8258     1.8668    -0.6252 O.3     
  21 C21           -0.7994     3.2730    -0.3563 C.3     
  22 C22            0.4364     3.8695    -1.0435 C.3     
  23 O23            1.5998     3.2271    -0.5127 O.3     
  24 C24            2.7126    -1.4907     2.8322 C.2     
  25 O25            3.8665    -1.7275     3.1198 O.2     
  26 C26            2.2340    -0.0641     2.7501 C.3     
  27 H27           -0.6129    -0.7206    -0.3983 H       
  28 H28            3.6791     1.6953    -0.2139 H       
  29 H29            3.5506    -2.6224    -1.3704 H       
  30 H30            3.7929    -3.1664     0.3231 H       
  31 H31            1.4982    -3.0892     4.6427 H       
  32 H32           -0.0572    -4.9340     4.1765 H       
  33 H33           -0.6634    -5.4941     1.8675 H       
  34 H34           -1.5237    -4.6955    -1.0952 H       
  35 H35           -0.1318    -5.3658    -1.9794 H       
  36 H36           -0.5421    -5.9870    -0.3626 H       
  37 H37           -1.7014     3.7399    -0.7518 H       
  38 H38           -0.7391     3.4406     0.7191 H       
  39 H39            0.3798     3.6948    -2.1179 H       
  40 H40            0.4852     4.9405    -0.8468 H       
  41 H41            1.1778    -0.0501     2.4812 H       
  42 H42            2.3692     0.4207     3.7170 H       
  43 H43            2.8089     0.4690     1.9928 H       
@<TRIPOS>BOND
   1    1    2 ar
   2    1    6 ar
   3    1   20 1
   4    2    3 ar
   5    2   27 1
   6    3    4 ar
   7    3    8 1
   8    4    5 ar
   9    4    7 1
  10    5    6 ar
  11    5   28 1
  12    6   23 1
  13    7    9 1
  14    8    9 1
  15    8   11 1
  16    8   12 1
  17    9   29 1
  18    9   30 1
  19   10   11 ar
  20   10   13 1
  21   10   18 ar
  22   11   15 ar
  23   12   13 am
  24   12   14 2
  25   13   19 1
  26   15   16 ar
  27   15   24 1
  28   16   17 ar
  29   16   31 1
  30   17   18 ar
  31   17   32 1
  32   18   33 1
  33   19   34 1
  34   19   35 1
  35   19   36 1
  36   20   21 1
  37   21   22 1
  38   21   37 1
  39   21   38 1
  40   22   23 1
  41   22   39 1
  42   22   40 1
  43   24   25 2
  44   24   26 1
  45   26   41 1
  46   26   42 1
  47   26   43 1

#	End of record

