#	Name: ASD02030240
#	Creating user name:	WinNT
#	Creation time:	15. 06. 2019 20:14

#	Modifying user name:	WinNT
#	Modification time:	15. 06. 2019 20:14

#	Program:	/corina/corina34_cracker 3.40 0067  02.08.2006

@<TRIPOS>MOLECULE
ASD02030240
  59   62    0    0    0
SMALL
NO_CHARGES


@<TRIPOS>ATOM
   1 N1            -0.9986     2.1313    -1.3673 N.am    
   2 C2            -0.9301     0.7051    -1.7150 C.3     
   3 C3            -1.0899    -0.1203    -0.4322 C.3     
   4 N4            -2.2633     0.3744     0.3014 N.am    
   5 C5            -2.3317     1.8007     0.6491 C.3     
   6 C6            -2.1694     2.6249    -0.6288 C.3     
   7 C7            -0.0028     2.9706    -1.7146 C.2     
   8 C8             1.2197     2.4417    -2.3559 C.2     
   9 N9             2.3081     3.1279    -2.6306 N.2     
  10 N10            1.4175     1.1723    -2.7563 N.2     
  11 C11            2.6191     1.1097    -3.2712 C.2     
  12 N12            3.1640     2.3406    -3.1855 N.pl3   
  13 C13            4.4441     2.7023    -3.6265 C.ar    
  14 O14           -0.1099     4.1624    -1.5005 O.2     
  15 C15           -3.2590    -0.4649     0.6488 C.2     
  16 C16           -3.1763    -1.8976     0.2928 C.ar    
  17 O17           -4.2251    -0.0439     1.2546 O.2     
  18 C18            4.8870     4.0098    -3.4789 C.ar    
  19 C19            6.1493     4.3632    -3.9146 C.ar    
  20 C20            6.9714     3.4164    -4.4971 C.ar    
  21 C21            6.5329     2.1132    -4.6459 C.ar    
  22 C22            5.2743     1.7523    -4.2067 C.ar    
  23 C23           -3.6855     2.1080     1.2923 C.3     
  24 C24           -4.3379    -2.6179     0.0147 C.ar    
  25 C25            6.6306     5.7823    -3.7552 C.3     
  26 C26           -4.2526    -3.9595    -0.3184 C.ar    
  27 C27           -3.0142    -4.5839    -0.3745 C.ar    
  28 C28           -1.8617    -3.8710    -0.0990 C.ar    
  29 C29           -1.9348    -2.5328     0.2282 C.ar    
  30 C30           -2.9253    -6.0441    -0.7364 C.3     
  31 O31           -5.3820    -4.6650    -0.5901 O.3     
  32 C32           -6.6221    -3.9593    -0.5131 C.3     
  33 H33           -1.7326     0.4592    -2.4105 H       
  34 H34            0.0343     0.4861    -2.1732 H       
  35 H35           -1.2342    -1.1699    -0.6881 H       
  36 H36           -0.1990    -0.0112     0.1863 H       
  37 H37           -1.5293     2.0466     1.3446 H       
  38 H38           -2.0252     3.6743    -0.3714 H       
  39 H39           -3.0589     2.5168    -1.2493 H       
  40 H40            3.0899     0.2312    -3.6871 H       
  41 H41            4.2451     4.7499    -3.0243 H       
  42 H42            7.9579     3.6952    -4.8369 H       
  43 H43            7.1771     1.3760    -5.1019 H       
  44 H44            4.9324     0.7345    -4.3232 H       
  45 H45           -3.7679     1.5737     2.2387 H       
  46 H46           -3.7674     3.1800     1.4719 H       
  47 H47           -4.4858     1.7894     0.6243 H       
  48 H48           -5.3009    -2.1310     0.0594 H       
  49 H49            7.1311     5.8904    -2.7930 H       
  50 H50            7.3294     6.0212    -4.5570 H       
  51 H51            5.7796     6.4619    -3.8005 H       
  52 H52           -0.9010    -4.3625    -0.1440 H       
  53 H53           -1.0327    -1.9789     0.4424 H       
  54 H54           -2.8223    -6.1451    -1.8168 H       
  55 H55           -2.0591    -6.4880    -0.2457 H       
  56 H56           -3.8303    -6.5555    -0.4084 H       
  57 H57           -6.7561    -3.5692     0.4959 H       
  58 H58           -6.6148    -3.1331    -1.2240 H       
  59 H59           -7.4415    -4.6372    -0.7523 H       
@<TRIPOS>BOND
   1    1    2 1
   2    1    7 am
   3    1    6 1
   4    2    3 1
   5    2   33 1
   6    2   34 1
   7    3    4 1
   8    3   35 1
   9    3   36 1
  10    4    5 1
  11    4   15 am
  12    5    6 1
  13    5   23 1
  14    5   37 1
  15    6   38 1
  16    6   39 1
  17    7    8 1
  18    7   14 2
  19    8    9 2
  20    8   10 1
  21    9   12 1
  22   10   11 2
  23   11   12 1
  24   11   40 1
  25   12   13 1
  26   13   18 ar
  27   13   22 ar
  28   15   16 1
  29   15   17 2
  30   16   24 ar
  31   16   29 ar
  32   18   19 ar
  33   18   41 1
  34   19   20 ar
  35   19   25 1
  36   20   21 ar
  37   20   42 1
  38   21   22 ar
  39   21   43 1
  40   22   44 1
  41   23   45 1
  42   23   46 1
  43   23   47 1
  44   24   26 ar
  45   24   48 1
  46   25   49 1
  47   25   50 1
  48   25   51 1
  49   26   27 ar
  50   26   31 1
  51   27   28 ar
  52   27   30 1
  53   28   29 ar
  54   28   52 1
  55   29   53 1
  56   30   54 1
  57   30   55 1
  58   30   56 1
  59   31   32 1
  60   32   57 1
  61   32   58 1
  62   32   59 1

#	End of record

