#	Name: ASD01884891
#	Creating user name:	WinNT
#	Creation time:	15. 06. 2019 19:49

#	Modifying user name:	WinNT
#	Modification time:	15. 06. 2019 19:49

#	Program:	/corina/corina34_cracker 3.40 0067  02.08.2006

@<TRIPOS>MOLECULE
ASD01884891
  50   55    0    0    0
SMALL
NO_CHARGES


@<TRIPOS>ATOM
   1 C1            -0.5918     1.4584    -0.3050 C.ar    
   2 C2            -0.4175     0.0938    -0.2618 C.ar    
   3 C3            -1.5156    -0.7581    -0.0928 C.ar    
   4 C4            -2.7939    -0.2303     0.0335 C.ar    
   5 C5            -2.9755     1.1519    -0.0092 C.ar    
   6 C6            -1.8681     2.0038    -0.1739 C.ar    
   7 C7            -4.1488     2.0252     0.0887 C.2     
   8 C8            -3.7089     3.2885    -0.0218 C.2     
   9 N9            -2.3481     3.2970    -0.1787 N.pl3   
  10 C10           -1.3136    -2.2255    -0.0490 C.2     
  11 C11           -1.5405    -2.9265     1.1203 C.2     
  12 C12           -0.8919    -2.9239    -1.2065 C.2     
  13 C13           -0.7093    -4.2570    -1.1648 C.2     
  14 N14           -0.9260    -4.9569    -0.0128 N.pl3   
  15 C15           -1.3402    -4.3174     1.1307 C.2     
  16 C16           -0.8246    -6.2748     0.3146 C.2     
  17 N17           -1.1551    -6.3943     1.5745 N.2     
  18 N18           -1.4622    -5.2460     2.0669 N.2     
  19 C19           -1.5617     4.4470    -0.3235 C.ar    
  20 C20           -0.4080    -7.3920    -0.6069 C.3     
  21 C21            0.8346    -8.1981    -0.2231 C.3     
  22 C22           -0.5548    -8.8250    -0.0912 C.3     
  23 C23           -0.4316     4.6311     0.4617 C.ar    
  24 N24            0.3107     5.7122     0.3287 N.ar    
  25 C25            0.0159     6.6541    -0.5458 C.ar    
  26 C26           -1.0936     6.5424    -1.3634 C.ar    
  27 C27           -1.8987     5.4200    -1.2614 C.ar    
  28 C28            0.9002     7.8695    -0.6552 C.3     
  29 F29            0.4755     2.2703    -0.4689 F       
  30 C30           -1.9953    -2.2100     2.3656 C.3     
  31 F31           -3.3795    -2.0143     2.3117 F       
  32 F32           -1.6766    -2.9799     3.4893 F       
  33 F33           -1.3521    -0.9706     2.4517 F       
  34 H34            0.5741    -0.3231    -0.3593 H       
  35 H35           -3.6421    -0.8861     0.1636 H       
  36 H36           -5.1733     1.7115     0.2238 H       
  37 H37           -4.3347     4.1680     0.0112 H       
  38 H38           -0.7164    -2.3853    -2.1260 H       
  39 H39           -0.3878    -4.7794    -2.0537 H       
  40 H40           -0.5870    -7.2178    -1.6678 H       
  41 H41            1.4728    -8.5545    -1.0316 H       
  42 H42            1.3507    -7.9203     0.6959 H       
  43 H43           -0.9528    -8.9596     0.9146 H       
  44 H44           -0.8307    -9.5938    -0.8129 H       
  45 H45           -0.1582     3.8811     1.1891 H       
  46 H46           -1.3274     7.3194    -2.0761 H       
  47 H47           -2.7715     5.3064    -1.8874 H       
  48 H48            1.6838     7.6837    -1.3897 H       
  49 H49            0.3035     8.7259    -0.9693 H       
  50 H50            1.3528     8.0780     0.3142 H       
@<TRIPOS>BOND
   1    1    2 ar
   2    1   29 1
   3    1    6 ar
   4    2    3 ar
   5    2   34 1
   6    3    4 ar
   7    3   10 1
   8    4    5 ar
   9    4   35 1
  10    5    6 ar
  11    5    7 1
  12    6    9 1
  13    7    8 2
  14    7   36 1
  15    8    9 1
  16    8   37 1
  17    9   19 1
  18   10   11 2
  19   10   12 1
  20   11   30 1
  21   11   15 1
  22   12   13 2
  23   12   38 1
  24   13   14 1
  25   13   39 1
  26   14   15 1
  27   14   16 1
  28   15   18 2
  29   16   17 2
  30   16   20 1
  31   17   18 1
  32   19   23 ar
  33   19   27 ar
  34   20   21 1
  35   20   22 1
  36   20   40 1
  37   21   22 1
  38   21   41 1
  39   21   42 1
  40   22   43 1
  41   22   44 1
  42   23   24 ar
  43   23   45 1
  44   24   25 ar
  45   25   26 ar
  46   25   28 1
  47   26   27 ar
  48   26   46 1
  49   27   47 1
  50   28   48 1
  51   28   49 1
  52   28   50 1
  53   30   31 1
  54   30   32 1
  55   30   33 1

#	End of record

