#	Name: ASD09116503
#	Creating user name:	WinNT
#	Creation time:	15. 06. 2019 21:21

#	Modifying user name:	WinNT
#	Modification time:	15. 06. 2019 21:21

#	Program:	/corina/corina34_cracker 3.40 0067  02.08.2006

@<TRIPOS>MOLECULE
ASD09116503
  85   90    0    0    0
SMALL
NO_CHARGES


@<TRIPOS>ATOM
   1 N1             1.6267     1.2875     2.4830 N.2     
   2 N2             1.0845     2.2605     3.3381 N.pl3   
   3 C3             2.8371     1.6841     2.1706 C.2     
   4 N4             3.0852     2.8492     2.7802 N.2     
   5 C5             2.0370     3.2105     3.4888 C.2     
   6 N6             1.9278     4.3574     4.2520 N.pl3   
   7 C7            -0.1856     2.2504     3.9175 C.ar    
   8 N8             3.7233     1.0011     1.3373 N.pl3   
   9 C9             4.9472     1.5813     0.9936 C.ar    
  10 C10            6.0417     0.7763     0.7028 C.ar    
  11 C11            5.0701     2.9644     0.9366 C.ar    
  12 C12            6.2858     3.5278     0.5955 C.ar    
  13 C13            7.3653     2.7307     0.3139 C.ar    
  14 C14            7.2507     1.3516     0.3627 C.ar    
  15 N15           -0.4053     2.9129     5.0433 N.ar    
  16 N16           -1.5528     2.9277     5.6227 N.ar    
  17 C17           -2.5903     2.2749     5.1238 C.ar    
  18 C18           -2.4579     1.5652     3.9269 C.ar    
  19 C19           -1.2265     1.5463     3.3068 C.ar    
  20 C20           -3.8989     2.2457     5.8174 C.ar    
  21 C21           -4.5298     1.0165     6.0159 C.ar    
  22 C22           -3.8422    -0.2457     5.5727 C.3     
  23 C23           -3.9424    -0.4332     4.0613 C.3     
  24 C24           -3.6524     0.8767     3.3334 C.3     
  25 C25           -4.5007     3.4168     6.2641 C.ar    
  26 C26           -5.7324     3.3579     6.8870 C.ar    
  27 C27           -6.3639     2.1401     7.0631 C.ar    
  28 C28           -5.7642     0.9711     6.6274 C.ar    
  29 C29            6.4175     5.0356     0.5359 C.3     
  30 C30            6.5600     5.4523    -0.9300 C.3     
  31 C31            8.0068     5.3772    -1.3763 C.3     
  32 C32            8.5666     3.9705    -1.4540 C.3     
  33 C33            8.6943     3.3546    -0.0589 C.3     
  34 N34            8.1177     5.9967    -2.7037 N.3     
  35 C35            9.5192     6.0605    -3.1394 C.3     
  36 C36            9.6234     6.9260    -4.3968 C.3     
  37 C37            7.2923     5.2841    -3.6879 C.3     
  38 N38           11.0248     6.9898    -4.8325 N.3     
  39 C39           11.4990     5.6718    -5.2752 C.3     
  40 C40           11.2025     7.9952    -5.8887 C.3     
  41 C41           13.0278     5.6738    -5.3363 C.3     
  42 C42           11.1739     9.3946    -5.2708 C.3     
  43 H43            2.6688     4.9816     4.2983 H       
  44 H44            1.1101     4.5381     4.7415 H       
  45 H45            3.4900     0.1234     0.9966 H       
  46 H46            5.9473    -0.2988     0.7428 H       
  47 H47            4.2214     3.5951     1.1569 H       
  48 H48            8.1041     0.7283     0.1397 H       
  49 H49           -1.0703     1.0009     2.3878 H       
  50 H50           -2.7911    -0.1980     5.8572 H       
  51 H51           -4.3065    -1.0978     6.0692 H       
  52 H52           -3.2214    -1.1868     3.7446 H       
  53 H53           -4.9474    -0.7700     3.8073 H       
  54 H54           -4.5203     1.5313     3.4142 H       
  55 H55           -3.4593     0.6670     2.2814 H       
  56 H56           -4.0077     4.3676     6.1252 H       
  57 H57           -6.2031     4.2646     7.2374 H       
  58 H58           -7.3306     2.1010     7.5430 H       
  59 H59           -6.2631     0.0235     6.7673 H       
  60 H60            5.5279     5.4982     0.9634 H       
  61 H61            7.3004     5.3485     1.0932 H       
  62 H62            5.9586     4.7886    -1.5511 H       
  63 H63            6.2014     6.4748    -1.0482 H       
  64 H64            8.6144     5.9530    -0.6782 H       
  65 H65            7.9017     3.3533    -2.0583 H       
  66 H66            9.5499     4.0017    -1.9232 H       
  67 H67            8.9494     4.1311     0.6623 H       
  68 H68            9.4695     2.5884    -0.0663 H       
  69 H69           10.1267     6.4969    -2.3466 H       
  70 H70            9.8772     5.0549    -3.3598 H       
  71 H71            9.0159     6.4897    -5.1896 H       
  72 H72            9.2653     7.9316    -4.1764 H       
  73 H73            6.2485     5.3122    -3.3752 H       
  74 H74            7.3929     5.7634    -4.6617 H       
  75 H75            7.6230     4.2478    -3.7572 H       
  76 H76           11.1645     4.9100    -4.5710 H       
  77 H77           11.0961     5.4541    -6.2644 H       
  78 H78           12.1603     7.8363    -6.3842 H       
  79 H79           10.3969     7.9032    -6.6172 H       
  80 H80           13.3628     6.4490    -6.0254 H       
  81 H81           13.4308     5.8717    -4.3430 H       
  82 H82           13.3788     4.7022    -5.6839 H       
  83 H83           10.1834     9.5902    -4.8601 H       
  84 H84           11.9158     9.4554    -4.4746 H       
  85 H85           11.4022    10.1350    -6.0374 H       
@<TRIPOS>BOND
   1    1    2 1
   2    1    3 2
   3    2    7 1
   4    2    5 1
   5    3    4 1
   6    3    8 1
   7    4    5 2
   8    5    6 1
   9    6   43 1
  10    6   44 1
  11    7   15 ar
  12    7   19 ar
  13    8    9 1
  14    8   45 1
  15    9   10 ar
  16    9   11 ar
  17   10   14 ar
  18   10   46 1
  19   11   12 ar
  20   11   47 1
  21   12   13 ar
  22   12   29 1
  23   13   14 ar
  24   13   33 1
  25   14   48 1
  26   15   16 ar
  27   16   17 ar
  28   17   18 ar
  29   17   20 1
  30   18   19 ar
  31   18   24 1
  32   19   49 1
  33   20   21 ar
  34   20   25 ar
  35   21   22 1
  36   21   28 ar
  37   22   23 1
  38   22   50 1
  39   22   51 1
  40   23   24 1
  41   23   52 1
  42   23   53 1
  43   24   54 1
  44   24   55 1
  45   25   26 ar
  46   25   56 1
  47   26   27 ar
  48   26   57 1
  49   27   28 ar
  50   27   58 1
  51   28   59 1
  52   29   30 1
  53   29   60 1
  54   29   61 1
  55   30   31 1
  56   30   62 1
  57   30   63 1
  58   31   32 1
  59   31   34 1
  60   31   64 1
  61   32   33 1
  62   32   65 1
  63   32   66 1
  64   33   67 1
  65   33   68 1
  66   34   35 1
  67   34   37 1
  68   35   36 1
  69   35   69 1
  70   35   70 1
  71   36   38 1
  72   36   71 1
  73   36   72 1
  74   37   73 1
  75   37   74 1
  76   37   75 1
  77   38   39 1
  78   38   40 1
  79   39   41 1
  80   39   76 1
  81   39   77 1
  82   40   42 1
  83   40   78 1
  84   40   79 1
  85   41   80 1
  86   41   81 1
  87   41   82 1
  88   42   83 1
  89   42   84 1
  90   42   85 1

#	End of record

