#	Name: ASD00170437
#	Creating user name:	WinNT
#	Creation time:	15. 06. 2019 18:32

#	Modifying user name:	WinNT
#	Modification time:	15. 06. 2019 18:32

#	Program:	/corina/corina34_cracker 3.40 0067  02.08.2006

@<TRIPOS>MOLECULE
ASD00170437
  83   87    0    0    0
SMALL
NO_CHARGES


@<TRIPOS>ATOM
   1 C1            -0.1481     0.4470    -1.8435 C.2     
   2 C2            -0.1148    -0.8685    -1.4308 C.2     
   3 C3            -1.2113    -1.2373    -0.6469 C.2     
   4 C4            -2.0895    -0.2425    -0.4438 C.2     
   5 S5            -1.5455     1.2218    -1.2465 S.3     
   6 C6            -1.3917    -2.6231    -0.0830 C.3     
   7 N7             0.8141     1.0513    -2.6228 N.pl3   
   8 C8             0.9667    -1.7909    -1.7806 C.2     
   9 C9             0.8217    -2.6933    -2.9429 C.ar    
  10 O10            1.9857    -1.8151    -1.1144 O.2     
  11 C11            1.8009    -3.6513    -3.2128 C.ar    
  12 C12            1.6599    -4.4904    -4.2980 C.ar    
  13 C13            0.5500    -4.3839    -5.1197 C.ar    
  14 C14           -0.4245    -3.4351    -4.8573 C.ar    
  15 C15           -0.2976    -2.5946    -3.7715 C.ar    
  16 Cl16           0.3797    -5.4433    -6.4844 Cl      
  17 N17           -1.5125    -2.5449     1.3790 N.3     
  18 C18           -3.3265    -0.3604     0.3424 C.2     
  19 C19           -2.1306    -3.7619     1.9220 C.3     
  20 C20           -0.2062    -2.2947     2.0026 C.3     
  21 C21           -3.5377    -3.9213     1.3427 C.3     
  22 C22           -4.1815    -5.1889     1.9083 C.3     
  23 C23           -3.3332    -6.4044     1.5292 C.3     
  24 C24           -1.9261    -6.2450     2.1084 C.3     
  25 C25           -1.2823    -4.9775     1.5429 C.3     
  26 C26            0.1765    -0.8255     1.8127 C.3     
  27 C27            1.5371    -0.5649     2.4622 C.3     
  28 C28            1.4579    -0.8822     3.9568 C.3     
  29 C29            1.0752    -2.3514     4.1467 C.3     
  30 C30           -0.2854    -2.6120     3.4972 C.3     
  31 C31           -4.1292     0.6913     0.4812 C.2     
  32 C32           -5.3970     0.5704     1.2869 C.3     
  33 C33           -5.4125     1.6434     2.3774 C.3     
  34 C34           -6.7524     1.6018     3.1149 C.3     
  35 C35           -6.7679     2.6748     4.2054 C.3     
  36 C36           -5.6321     2.4116     5.1961 C.3     
  37 C37           -4.2922     2.4532     4.4586 C.3     
  38 C38           -4.2767     1.3802     3.3681 C.3     
  39 H39           -2.2948    -3.0699    -0.4988 H       
  40 H40           -0.5294    -3.2367    -0.3439 H       
  41 H41            1.6205     0.5673    -2.8600 H       
  42 H42            0.6851     1.9609    -2.9341 H       
  43 H43            2.6671    -3.7348    -2.5732 H       
  44 H44            2.4166    -5.2319    -4.5078 H       
  45 H45           -1.2876    -3.3564    -5.5018 H       
  46 H46           -1.0581    -1.8552    -3.5678 H       
  47 H47           -3.5835    -1.3009     0.8070 H       
  48 H48           -2.1911    -3.6854     3.0076 H       
  49 H49            0.5468    -2.9296     1.5357 H       
  50 H50           -4.1421    -3.0553     1.6128 H       
  51 H51           -3.4772    -3.9979     0.2571 H       
  52 H52           -4.2420    -5.1123     2.9939 H       
  53 H53           -5.1839    -5.3024     1.4956 H       
  54 H54           -3.7918    -7.3074     1.9321 H       
  55 H55           -3.2727    -6.4810     0.4436 H       
  56 H56           -1.9866    -6.1685     3.1941 H       
  57 H57           -1.3217    -7.1110     1.8384 H       
  58 H58           -1.2218    -5.0540     0.4573 H       
  59 H59           -0.2799    -4.8639     1.9556 H       
  60 H60            0.2329    -0.5994     0.7479 H       
  61 H61           -0.5766    -0.1906     2.2795 H       
  62 H62            2.2901    -1.1998     1.9954 H       
  63 H63            1.8097     0.4817     2.3269 H       
  64 H64            2.4272    -0.6966     4.4195 H       
  65 H65            0.7048    -0.2474     4.4237 H       
  66 H66            1.8282    -2.9863     3.6798 H       
  67 H67            1.0188    -2.5775     5.2115 H       
  68 H68           -1.0385    -1.9771     3.9640 H       
  69 H69           -0.5581    -3.6587     3.6325 H       
  70 H70           -3.8722     1.6317     0.0166 H       
  71 H71           -6.2578     0.7054     0.6321 H       
  72 H72           -5.4420    -0.4165     1.7475 H       
  73 H73           -5.2781     2.6251     1.9231 H       
  74 H74           -7.5615     1.7893     2.4091 H       
  75 H75           -6.8867     0.6201     3.5691 H       
  76 H76           -6.6335     3.6565     3.7511 H       
  77 H77           -7.7224     2.6452     4.7308 H       
  78 H78           -5.6431     3.1760     5.9730 H       
  79 H79           -5.7664     1.4299     5.6504 H       
  80 H80           -4.1578     3.4349     4.0044 H       
  81 H81           -3.4830     2.2657     5.1645 H       
  82 H82           -4.4110     0.3985     3.8224 H       
  83 H83           -3.3221     1.4099     2.8428 H       
@<TRIPOS>BOND
   1    1    2 2
   2    1    7 1
   3    1    5 1
   4    2    3 1
   5    2    8 1
   6    3    4 2
   7    3    6 1
   8    4    5 1
   9    4   18 1
  10    6   17 1
  11    6   39 1
  12    6   40 1
  13    7   41 1
  14    7   42 1
  15    8    9 1
  16    8   10 2
  17    9   11 ar
  18    9   15 ar
  19   11   12 ar
  20   11   43 1
  21   12   13 ar
  22   12   44 1
  23   13   14 ar
  24   13   16 1
  25   14   15 ar
  26   14   45 1
  27   15   46 1
  28   17   19 1
  29   17   20 1
  30   18   31 2
  31   18   47 1
  32   19   21 1
  33   19   25 1
  34   19   48 1
  35   20   26 1
  36   20   30 1
  37   20   49 1
  38   21   22 1
  39   21   50 1
  40   21   51 1
  41   22   23 1
  42   22   52 1
  43   22   53 1
  44   23   24 1
  45   23   54 1
  46   23   55 1
  47   24   25 1
  48   24   56 1
  49   24   57 1
  50   25   58 1
  51   25   59 1
  52   26   27 1
  53   26   60 1
  54   26   61 1
  55   27   28 1
  56   27   62 1
  57   27   63 1
  58   28   29 1
  59   28   64 1
  60   28   65 1
  61   29   30 1
  62   29   66 1
  63   29   67 1
  64   30   68 1
  65   30   69 1
  66   31   32 1
  67   31   70 1
  68   32   33 1
  69   32   71 1
  70   32   72 1
  71   33   34 1
  72   33   38 1
  73   33   73 1
  74   34   35 1
  75   34   74 1
  76   34   75 1
  77   35   36 1
  78   35   76 1
  79   35   77 1
  80   36   37 1
  81   36   78 1
  82   36   79 1
  83   37   38 1
  84   37   80 1
  85   37   81 1
  86   38   82 1
  87   38   83 1

#	End of record

