#	Name: ASD01680007
#	Creating user name:	WinNT
#	Creation time:	15. 06. 2019 19:22

#	Modifying user name:	WinNT
#	Modification time:	15. 06. 2019 19:22

#	Program:	/corina/corina34_cracker 3.40 0067  02.08.2006

@<TRIPOS>MOLECULE
ASD01680007
 122  126    0    0    0
SMALL
NO_CHARGES


@<TRIPOS>ATOM
   1 C1            -0.0822     1.2539     0.5125 C.ar    
   2 C2             0.0054     0.0161    -0.1085 C.ar    
   3 C3            -1.1143    -0.5489    -0.6911 C.ar    
   4 C4            -2.3262     0.1146    -0.6583 C.ar    
   5 C5            -2.4258     1.3535    -0.0399 C.ar    
   6 C6            -1.3027     1.9248     0.5537 C.ar    
   7 N7             1.0524     1.8251     1.1015 N.pl3   
   8 S8            -1.4215     3.4966     1.3410 S.3     
   9 C9            -1.8514     3.0656     3.0498 C.3     
  10 C10           -1.9932     4.3443     3.8780 C.3     
  11 N11           -2.3413     3.9952     5.2618 N.3     
  12 N12           -3.6547     2.0251    -0.0078 N.am    
  13 C13           -4.8056     1.3286    -0.0894 C.2     
  14 C14           -6.1025     2.0260     0.0416 C.ar    
  15 O15           -4.7773     0.1268    -0.2707 O.2     
  16 C16           -7.2933     1.3075    -0.0426 C.ar    
  17 C17           -8.5112     1.9726     0.0819 C.ar    
  18 C18           -8.5311     3.3539     0.2900 C.ar    
  19 C19           -7.3473     4.0599     0.3723 C.ar    
  20 C20           -6.1368     3.4061     0.2556 C.ar    
  21 C21           -9.7795     1.2184    -0.0066 C.2     
  22 N22          -10.9568     1.8633     0.1140 N.am    
  23 O23           -9.7606     0.0164    -0.1881 O.2     
  24 C24          -12.1582     1.1716    -0.0875 C.ar    
  25 C25          -12.1802     0.0323    -0.8806 C.ar    
  26 C26          -13.3648    -0.6511    -1.0803 C.ar    
  27 C27          -14.5341    -0.2053    -0.4916 C.ar    
  28 C28          -14.5241     0.9321     0.3031 C.ar    
  29 C29          -13.3318     1.6221     0.5122 C.ar    
  30 S30          -13.3114     3.0669     1.5206 S.3     
  31 C31          -12.9790     2.4043     3.1762 C.3     
  32 C32          -12.9294     3.5535     4.1850 C.3     
  33 N33          -12.6602     3.0169     5.5257 N.3     
  34 N34          -15.7089     1.3825     0.8981 N.pl3   
  35 C35            2.3336     1.1157     1.0627 C.3     
  36 C36            3.0349     1.4160    -0.2370 C.2     
  37 C37            3.2071     1.5758     2.2316 C.3     
  38 O38            4.2342     0.8708    -0.4941 O.3     
  39 O39            2.5175     2.1475    -1.0476 O.2     
  40 C40            2.5637     1.1659     3.5312 C.ar    
  41 C41            2.8564    -0.0631     4.1025 C.ar    
  42 C42            2.2409    -0.3981     5.2988 C.ar    
  43 C43            1.3621     0.4978     5.8780 C.ar    
  44 N44            1.1074     1.6583     5.3060 N.ar    
  45 C45            1.6787     2.0125     4.1715 C.ar    
  46 C46          -18.1111     2.6643    -0.2011 C.ar    
  47 C47          -18.7626     2.4655    -1.4036 C.ar    
  48 N48          -18.7375     3.3886    -2.3450 N.ar    
  49 C49          -18.0966     4.5293    -2.1807 C.ar    
  50 C50          -17.4224     4.7984    -1.0047 C.ar    
  51 C51          -17.4312     3.8540     0.0104 C.ar    
  52 C52          -18.1444     1.6038     0.8692 C.3     
  53 C53          -16.9606     0.6528     0.6818 C.3     
  54 C54          -17.0616    -0.4766     1.6744 C.2     
  55 O55          -16.1786    -0.6538     2.4799 O.2     
  56 O56          -18.1326    -1.2858     1.6637 O.3     
  57 C57           -1.0124    -1.8931    -1.3648 C.3     
  58 C58           -0.5547    -2.9401    -0.3474 C.3     
  59 C59           -2.3808    -2.2887    -1.9233 C.3     
  60 C60            0.0018    -1.8151    -2.5078 C.3     
  61 C61          -13.3824    -1.8865    -1.9431 C.3     
  62 C62          -11.9723    -2.1612    -2.4692 C.3     
  63 C63          -13.8592    -3.0808    -1.1141 C.3     
  64 C64          -14.3337    -1.6717    -3.1220 C.3     
  65 H65            0.9499    -0.5068    -0.1371 H       
  66 H66           -3.1974    -0.3314    -1.1150 H       
  67 H67            0.9902     2.6904     1.5354 H       
  68 H68           -2.7946     2.5194     3.0605 H       
  69 H69           -1.0655     2.4420     3.4759 H       
  70 H70           -1.0500     4.8905     3.8674 H       
  71 H71           -2.7791     4.9679     3.4519 H       
  72 H72           -1.6603     3.3648     5.6580 H       
  73 H73           -2.4407     4.8234     5.8296 H       
  74 H74           -3.6773     2.9915     0.0732 H       
  75 H75           -7.2723     0.2399    -0.2039 H       
  76 H76           -9.4745     3.8707     0.3862 H       
  77 H77           -7.3683     5.1276     0.5329 H       
  78 H78           -5.2145     3.9642     0.3213 H       
  79 H79          -10.9723     2.8064     0.3404 H       
  80 H80          -11.2700    -0.3203    -1.3428 H       
  81 H81          -15.4569    -0.7433    -0.6511 H       
  82 H82          -13.7712     1.7097     3.4554 H       
  83 H83          -12.0223     1.8820     3.1731 H       
  84 H84          -12.1371     4.2481     3.9058 H       
  85 H85          -13.8861     4.0758     4.1880 H       
  86 H86          -11.8101     2.4734     5.5337 H       
  87 H87          -12.6226     3.7570     6.2105 H       
  88 H88          -15.7008     2.1777     1.4535 H       
  89 H89            2.1575     0.0429     1.1410 H       
  90 H90            4.1919     1.1154     2.1525 H       
  91 H91            3.3099     2.6606     2.2033 H       
  92 H92            4.6449     1.0928    -1.3410 H       
  93 H93            3.5473    -0.7434     3.6268 H       
  94 H94            2.4452    -1.3472     5.7720 H       
  95 H95            0.8783     0.2442     6.8097 H       
  96 H96            1.4452     2.9714     3.7329 H       
  97 H97          -19.2982     1.5434    -1.5744 H       
  98 H98          -18.0983     5.2616    -2.9745 H       
  99 H99          -16.8987     5.7342    -0.8764 H       
 100 H100         -16.9134     4.0370     0.9403 H       
 101 H101         -18.0800     2.0752     1.8499 H       
 102 H102         -19.0762     1.0430     0.7961 H       
 103 H103         -16.9756     0.2491    -0.3306 H       
 104 H104         -18.1526    -1.9962     2.3195 H       
 105 H105          -1.2772    -2.9957     0.4668 H       
 106 H106          -0.4810    -3.9123    -0.8347 H       
 107 H107           0.4202    -2.6583     0.0504 H       
 108 H108          -2.7069    -1.5427    -2.6481 H       
 109 H109          -2.3071    -3.2609    -2.4106 H       
 110 H110          -3.1033    -2.3442    -1.1090 H       
 111 H111           0.9766    -1.5333    -2.1099 H       
 112 H112           0.0754    -2.7874    -2.9951 H       
 113 H113          -0.3243    -1.0692    -3.2326 H       
 114 H114         -11.2945    -2.3143    -1.6294 H       
 115 H115         -11.9850    -3.0548    -3.0933 H       
 116 H116         -11.6326    -1.3104    -3.0598 H       
 117 H117         -14.8638    -2.8851    -0.7393 H       
 118 H118         -13.8719    -3.9744    -1.7382 H       
 119 H119         -13.1814    -3.2338    -0.2742 H       
 120 H120         -13.9941    -0.8208    -3.7126 H       
 121 H121         -14.3465    -2.5652    -3.7461 H       
 122 H122         -15.3384    -1.4759    -2.7471 H       
@<TRIPOS>BOND
   1    1    2 ar
   2    1    7 1
   3    1    6 ar
   4    2    3 ar
   5    2   65 1
   6    3    4 ar
   7    3   57 1
   8    4    5 ar
   9    4   66 1
  10    5    6 ar
  11    5   12 1
  12    6    8 1
  13    7   35 1
  14    7   67 1
  15    8    9 1
  16    9   10 1
  17    9   68 1
  18    9   69 1
  19   10   11 1
  20   10   70 1
  21   10   71 1
  22   11   72 1
  23   11   73 1
  24   12   13 am
  25   12   74 1
  26   13   14 1
  27   13   15 2
  28   14   16 ar
  29   14   20 ar
  30   16   17 ar
  31   16   75 1
  32   17   18 ar
  33   17   21 1
  34   18   19 ar
  35   18   76 1
  36   19   20 ar
  37   19   77 1
  38   20   78 1
  39   21   22 am
  40   21   23 2
  41   22   24 1
  42   22   79 1
  43   24   25 ar
  44   24   29 ar
  45   25   26 ar
  46   25   80 1
  47   26   27 ar
  48   26   61 1
  49   27   28 ar
  50   27   81 1
  51   28   29 ar
  52   28   34 1
  53   29   30 1
  54   30   31 1
  55   31   32 1
  56   31   82 1
  57   31   83 1
  58   32   33 1
  59   32   84 1
  60   32   85 1
  61   33   86 1
  62   33   87 1
  63   34   53 1
  64   34   88 1
  65   35   36 1
  66   35   37 1
  67   35   89 1
  68   36   38 1
  69   36   39 2
  70   37   40 1
  71   37   90 1
  72   37   91 1
  73   38   92 1
  74   40   41 ar
  75   40   45 ar
  76   41   42 ar
  77   41   93 1
  78   42   43 ar
  79   42   94 1
  80   43   44 ar
  81   43   95 1
  82   44   45 ar
  83   45   96 1
  84   46   47 ar
  85   46   52 1
  86   46   51 ar
  87   47   48 ar
  88   47   97 1
  89   48   49 ar
  90   49   50 ar
  91   49   98 1
  92   50   51 ar
  93   50   99 1
  94   51  100 1
  95   52   53 1
  96   52  101 1
  97   52  102 1
  98   53   54 1
  99   53  103 1
 100   54   55 2
 101   54   56 1
 102   56  104 1
 103   57   58 1
 104   57   59 1
 105   57   60 1
 106   58  105 1
 107   58  106 1
 108   58  107 1
 109   59  108 1
 110   59  109 1
 111   59  110 1
 112   60  111 1
 113   60  112 1
 114   60  113 1
 115   61   62 1
 116   61   63 1
 117   61   64 1
 118   62  114 1
 119   62  115 1
 120   62  116 1
 121   63  117 1
 122   63  118 1
 123   63  119 1
 124   64  120 1
 125   64  121 1
 126   64  122 1

#	End of record

