#	Name: ASD01840483
#	Creating user name:	WinNT
#	Creation time:	15. 06. 2019 19:37

#	Modifying user name:	WinNT
#	Modification time:	15. 06. 2019 19:37

#	Program:	/corina/corina34_cracker 3.40 0067  02.08.2006

@<TRIPOS>MOLECULE
ASD01840483
  42   45    0    0    0
SMALL
NO_CHARGES


@<TRIPOS>ATOM
   1 C1             0.2611     1.7552    -0.9980 C.ar    
   2 C2             0.3841     0.5320    -1.6195 C.ar    
   3 N3             1.4990    -0.1677    -1.4965 N.ar    
   4 N4             2.4999     0.2427    -0.8111 N.ar    
   5 C5             1.3546     2.2267    -0.2364 C.ar    
   6 C6             1.5104     3.4570     0.5171 C.2     
   7 C7             2.4928     1.4121    -0.1670 C.ar    
   8 S8             3.7250     2.1824     0.8223 S.3     
   9 C9             2.7118     3.5783     1.1344 C.2     
  10 C10           -0.9999     2.5697    -1.1313 C.3     
  11 C11           -0.7562    -0.0106    -2.4419 C.3     
  12 N12            0.5179     4.4243     0.5985 N.pl3   
  13 C13            3.1102     4.7236     1.9514 C.2     
  14 O14            2.3404     5.6527     2.1138 O.2     
  15 N15            4.3297     4.7507     2.5248 N.am    
  16 C16            5.0757     5.6831     3.3831 C.3     
  17 C17            5.4973     3.8578     2.5728 C.3     
  18 C18            6.3699     5.1042     2.7947 C.3     
  19 C19            6.8273     5.7776     1.5264 C.ar    
  20 F20            7.3950     4.9245     3.7296 F       
  21 C21            8.1146     5.5772     1.0632 C.ar    
  22 C22            8.5357     6.1945    -0.0996 C.ar    
  23 C23            7.6702     7.0129    -0.8007 C.ar    
  24 C24            6.3810     7.2139    -0.3382 C.ar    
  25 C25            5.9584     6.5904     0.8239 C.ar    
  26 F26            5.5343     8.0139    -1.0224 F       
  27 H27           -1.6441     2.3852    -0.2716 H       
  28 H28           -0.7456     3.6287    -1.1742 H       
  29 H29           -1.5220     2.2841    -2.0445 H       
  30 H30           -0.6493     0.3210    -3.4747 H       
  31 H31           -0.7433    -1.1000    -2.4068 H       
  32 H32           -1.7008     0.3547    -2.0389 H       
  33 H33           -0.4028     4.1923     0.4002 H       
  34 H34            0.7452     5.3322     0.8537 H       
  35 H35            4.9141     6.7308     3.1292 H       
  36 H36            4.9558     5.4836     4.4479 H       
  37 H37            5.4885     3.1771     3.4240 H       
  38 H38            5.6948     3.3503     1.6286 H       
  39 H39            8.7917     4.9382     1.6106 H       
  40 H40            9.5415     6.0376    -0.4603 H       
  41 H41            7.9997     7.4957    -1.7089 H       
  42 H42            4.9515     6.7429     1.1834 H       
@<TRIPOS>BOND
   1    1    2 ar
   2    1    5 ar
   3    1   10 1
   4    2   11 1
   5    2    3 ar
   6    3    4 ar
   7    4    7 ar
   8    5    7 ar
   9    5    6 1
  10    6    9 2
  11    6   12 1
  12    7    8 1
  13    8    9 1
  14    9   13 1
  15   10   27 1
  16   10   28 1
  17   10   29 1
  18   11   30 1
  19   11   31 1
  20   11   32 1
  21   12   33 1
  22   12   34 1
  23   13   14 2
  24   13   15 am
  25   15   16 1
  26   15   17 1
  27   16   18 1
  28   16   35 1
  29   16   36 1
  30   17   18 1
  31   17   37 1
  32   17   38 1
  33   18   19 1
  34   18   20 1
  35   19   21 ar
  36   19   25 ar
  37   21   22 ar
  38   21   39 1
  39   22   23 ar
  40   22   40 1
  41   23   24 ar
  42   23   41 1
  43   24   25 ar
  44   24   26 1
  45   25   42 1

#	End of record

