#	Name: ASD01840330
#	Creating user name:	WinNT
#	Creation time:	15. 06. 2019 19:37

#	Modifying user name:	WinNT
#	Modification time:	15. 06. 2019 19:37

#	Program:	/corina/corina34_cracker 3.40 0067  02.08.2006

@<TRIPOS>MOLECULE
ASD01840330
  35   37    0    0    0
SMALL
NO_CHARGES


@<TRIPOS>ATOM
   1 Cl1            0.0000     0.0000     0.0000 Cl      
   2 H2             0.0000     1.3700     0.0000 H       
   3 C3             6.4744    15.6856    11.4619 C.3     
   4 C4             6.4949    14.1787    11.4536 C.ar    
   5 N5             6.4981    13.5418    10.3015 N.ar    
   6 C6             6.5162    12.2174    10.2332 C.ar    
   7 O7             6.5234    11.3642     9.1863 O.3     
   8 C8             6.5436    10.0792     9.5953 C.ar    
   9 C9             6.5583     8.8541     8.9185 C.ar    
  10 N10            6.5530     8.8129     7.5326 N.pl3   
  11 C11            6.5685     7.5231     6.8380 C.3     
  12 C12            5.6294     7.3534     5.6421 C.3     
  13 C13            7.1364     7.4925     5.4177 C.3     
  14 N14            6.5780     7.7310     9.6290 N.ar    
  15 C15            6.5838     7.7547    10.9484 C.ar    
  16 N16            6.5705     8.8826    11.6275 N.ar    
  17 C17            6.5506    10.0527    10.9949 C.ar    
  18 C18            6.5325    11.4620    11.4167 C.ar    
  19 C19            6.5295    12.1102    12.6496 C.ar    
  20 C20            6.5473    11.3269    13.9369 C.3     
  21 C21            6.5156    13.4952    12.6589 C.ar    
  22 Cl22           6.5181    14.3639    14.1619 Cl      
  23 H23            7.4970    16.0629    11.4541 H       
  24 H24            5.9473    16.0467    10.5788 H       
  25 H25            5.9643    16.0371    12.3587 H       
  26 H26            6.5389     9.6381     7.0229 H       
  27 H27            6.7432     6.6516     7.4688 H       
  28 H28            5.1859     6.3700     5.4860 H       
  29 H29            5.0000     8.2014     5.3721 H       
  30 H30            7.4985     8.4319     5.0000 H       
  31 H31            7.6845     6.6005     5.1139 H       
  32 H32            6.5995     6.8194    11.4882 H       
  33 H33            7.5791    11.1527    14.2420 H       
  34 H34            6.0293    11.8908    14.7126 H       
  35 H35            6.0463    10.3705    13.7871 H       
@<TRIPOS>BOND
   1    1    2 1
   2    3    4 1
   3    3   23 1
   4    3   24 1
   5    3   25 1
   6    4   21 ar
   7    4    5 ar
   8    5    6 ar
   9    6   18 ar
  10    6    7 1
  11    7    8 1
  12    8   17 ar
  13    8    9 ar
  14    9   10 1
  15    9   14 ar
  16   10   11 1
  17   10   26 1
  18   11   13 1
  19   11   12 1
  20   11   27 1
  21   12   13 1
  22   12   28 1
  23   12   29 1
  24   13   30 1
  25   13   31 1
  26   14   15 ar
  27   15   16 ar
  28   15   32 1
  29   16   17 ar
  30   17   18 1
  31   18   19 ar
  32   19   20 1
  33   19   21 ar
  34   20   33 1
  35   20   34 1
  36   20   35 1
  37   21   22 1

#	End of record

