#	Name: ASD01814104
#	Creating user name:	WinNT
#	Creation time:	15. 06. 2019 19:31

#	Modifying user name:	WinNT
#	Modification time:	15. 06. 2019 19:31

#	Program:	/corina/corina34_cracker 3.40 0067  02.08.2006

@<TRIPOS>MOLECULE
ASD01814104
  44   47    0    0    0
SMALL
NO_CHARGES


@<TRIPOS>ATOM
   1 C1             0.1040     1.4768     0.3860 C.ar    
   2 C2             0.0848     0.0905     0.3777 C.ar    
   3 C3             1.2533    -0.6303     0.2377 C.ar    
   4 C4             2.4704     0.0350     0.1020 C.ar    
   5 C5             2.4882     1.4402     0.1101 C.ar    
   6 C6             1.2977     2.1573     0.2531 C.ar    
   7 N7             3.6447    -0.6745    -0.0376 N.pl3   
   8 C8             4.8383    -0.0824    -0.1700 C.2     
   9 C9             4.9816     1.2904    -0.1761 C.2     
  10 C10            3.7817     2.1314    -0.0341 C.2     
  11 O11            3.8551     3.3478    -0.0340 O.2     
  12 C12            6.3096     1.9023    -0.3228 C.2     
  13 O13            6.4366     3.2444    -0.3273 O.3     
  14 O14            7.2937     1.1982    -0.4401 O.2     
  15 C15            3.5837    -2.1382    -0.0406 C.3     
  16 C16            3.4403    -2.6321    -1.4571 C.ar    
  17 C17            4.5589    -2.7764    -2.2540 C.ar    
  18 C18            4.4260    -3.2314    -3.5589 C.ar    
  19 C19            3.1685    -3.5400    -4.0587 C.ar    
  20 C20            2.0531    -3.3936    -3.2569 C.ar    
  21 C21            2.1891    -2.9457    -1.9560 C.ar    
  22 F22            1.2174    -1.9808     0.2325 F       
  23 F23            1.3145     3.5082     0.2605 F       
  24 N24            5.5601    -3.3785    -4.3706 N.pl3   
  25 C25            6.5407    -2.4431    -4.5782 C.2     
  26 C26            7.4343    -2.9953    -5.4206 C.2     
  27 N27            7.0160    -4.2334    -5.7223 N.2     
  28 C28            5.8976    -4.4769    -5.0950 C.2     
  29 C29            5.1075    -5.7580    -5.1703 C.3     
  30 H30           -0.8195     2.0267     0.4923 H       
  31 H31           -0.8550    -0.4311     0.4824 H       
  32 H32            5.7184    -0.6996    -0.2752 H       
  33 H33            7.3302     3.6005    -0.4264 H       
  34 H34            4.4987    -2.5409     0.3937 H       
  35 H35            2.7269    -2.4673     0.5474 H       
  36 H36            5.5362    -2.5352    -1.8625 H       
  37 H37            3.0620    -3.8938    -5.0735 H       
  38 H38            1.0742    -3.6332    -3.6454 H       
  39 H39            1.3157    -2.8324    -1.3309 H       
  40 H40            6.5871    -1.4532    -4.1489 H       
  41 H41            8.3324    -2.5227    -5.7899 H       
  42 H42            5.4463    -6.4402    -4.3906 H       
  43 H43            4.0489    -5.5408    -5.0283 H       
  44 H44            5.2559    -6.2195    -6.1466 H       
@<TRIPOS>BOND
   1    1    2 ar
   2    1    6 ar
   3    1   30 1
   4    2    3 ar
   5    2   31 1
   6    3    4 ar
   7    3   22 1
   8    4    5 ar
   9    4    7 1
  10    5    6 ar
  11    5   10 1
  12    6   23 1
  13    7    8 1
  14    7   15 1
  15    8    9 2
  16    8   32 1
  17    9   10 1
  18    9   12 1
  19   10   11 2
  20   12   13 1
  21   12   14 2
  22   13   33 1
  23   15   16 1
  24   15   34 1
  25   15   35 1
  26   16   17 ar
  27   16   21 ar
  28   17   18 ar
  29   17   36 1
  30   18   19 ar
  31   18   24 1
  32   19   20 ar
  33   19   37 1
  34   20   21 ar
  35   20   38 1
  36   21   39 1
  37   24   25 1
  38   24   28 1
  39   25   26 2
  40   25   40 1
  41   26   27 1
  42   26   41 1
  43   27   28 2
  44   28   29 1
  45   29   42 1
  46   29   43 1
  47   29   44 1

#	End of record

