#	Name: ASD04910433
#	Creating user name:	WinNT
#	Creation time:	15. 06. 2019 20:55

#	Modifying user name:	WinNT
#	Modification time:	15. 06. 2019 20:55

#	Program:	/corina/corina34_cracker 3.40 0067  02.08.2006

@<TRIPOS>MOLECULE
ASD04910433
  59   62    0    0    0
SMALL
NO_CHARGES


@<TRIPOS>ATOM
   1 C1            -0.1259     1.4251    -0.2781 C.ar    
   2 C2            -0.0620     0.0449    -0.2056 C.ar    
   3 C3             1.1541    -0.6045    -0.3228 C.ar    
   4 C4             2.3117     0.1214    -0.5129 C.ar    
   5 C5             2.2541     1.5140    -0.5875 C.ar    
   6 C6             1.0241     2.1629    -0.4685 C.ar    
   7 C7             3.4908     2.2984    -0.7906 C.2     
   8 N8             3.4318     3.6430    -0.8622 N.am    
   9 O9             4.5606     1.7307    -0.8932 O.2     
  10 C10            4.6572     4.4202    -1.0635 C.3     
  11 C11            4.3143     5.9107    -1.1075 C.3     
  12 C12            5.5748     6.7102    -1.3146 C.2     
  13 O13            5.5161     8.0493    -1.3859 O.3     
  14 O14            6.6383     6.1458    -1.4166 O.2     
  15 C15           -1.3224    -0.7546     0.0025 C.3     
  16 C16           -1.7954    -1.3193    -1.3385 C.3     
  17 N17           -1.0539    -1.8571     0.9292 N.pl3   
  18 C18           -1.1485    -1.6495     2.3092 C.ar    
  19 C19           -1.0188    -2.7180     3.1941 C.ar    
  20 C20           -1.1195    -2.4655     4.5509 C.ar    
  21 C21           -1.3450    -1.1648     4.9829 C.ar    
  22 N22           -1.4636    -0.1739     4.1146 N.ar    
  23 C23           -1.3672    -0.3754     2.8151 C.ar    
  24 N24           -1.4483    -0.8994     6.3535 N.pl3   
  25 C25           -1.6683     0.3250     6.9332 C.2     
  26 C26           -1.6971     0.1257     8.2654 C.2     
  27 N27           -1.5009    -1.1811     8.4977 N.2     
  28 C28           -1.3558    -1.8060     7.3610 C.2     
  29 Cl29          -1.9447     1.3484     9.4726 Cl      
  30 C30           -3.0587    -2.1737    -1.1345 C.3     
  31 C31           -2.1902    -0.1683    -2.2868 C.3     
  32 C32           -3.4190    -0.7142    -3.0556 C.3     
  33 C33           -4.1772    -1.5121    -1.9659 C.3     
  34 H34           -1.0788     1.9257    -0.1899 H       
  35 H35            1.1973    -1.6821    -0.2649 H       
  36 H36            3.2604    -0.3866    -0.6036 H       
  37 H37            0.9728     3.2402    -0.5252 H       
  38 H38            2.5780     4.0960    -0.7804 H       
  39 H39            5.3471     4.2303    -0.2413 H       
  40 H40            5.1232     4.1267    -2.0041 H       
  41 H41            3.6244     6.1006    -1.9297 H       
  42 H42            3.8483     6.2042    -0.1669 H       
  43 H43            6.3508     8.5189    -1.5195 H       
  44 H44           -2.0967    -0.1103     0.4189 H       
  45 H45           -1.0062    -1.9212    -1.7890 H       
  46 H46           -0.8106    -2.7310     0.5858 H       
  47 H47           -0.8441    -3.7196     2.8296 H       
  48 H48           -1.0244    -3.2699     5.2651 H       
  49 H49           -1.4695     0.4584     2.1363 H       
  50 H50           -1.7941     1.2671     6.4203 H       
  51 H51           -1.1840    -2.8656     7.2416 H       
  52 H52           -2.8830    -3.1901    -1.4868 H       
  53 H53           -3.3349    -2.1861    -0.0801 H       
  54 H54           -2.4609     0.7202    -1.7163 H       
  55 H55           -1.3761     0.0537    -2.9768 H       
  56 H56           -4.0330     0.1036    -3.4331 H       
  57 H57           -3.1062    -1.3705    -3.8677 H       
  58 H58           -4.8132    -2.2709    -2.4218 H       
  59 H59           -4.7688    -0.8407    -1.3436 H       
@<TRIPOS>BOND
   1    1    2 ar
   2    1    6 ar
   3    1   34 1
   4    2    3 ar
   5    2   15 1
   6    3    4 ar
   7    3   35 1
   8    4    5 ar
   9    4   36 1
  10    5    6 ar
  11    5    7 1
  12    6   37 1
  13    7    8 am
  14    7    9 2
  15    8   10 1
  16    8   38 1
  17   10   11 1
  18   10   39 1
  19   10   40 1
  20   11   12 1
  21   11   41 1
  22   11   42 1
  23   12   13 1
  24   12   14 2
  25   13   43 1
  26   15   16 1
  27   15   17 1
  28   15   44 1
  29   16   30 1
  30   16   31 1
  31   16   45 1
  32   17   18 1
  33   17   46 1
  34   18   19 ar
  35   18   23 ar
  36   19   20 ar
  37   19   47 1
  38   20   21 ar
  39   20   48 1
  40   21   22 ar
  41   21   24 1
  42   22   23 ar
  43   23   49 1
  44   24   25 1
  45   24   28 1
  46   25   26 2
  47   25   50 1
  48   26   27 1
  49   26   29 1
  50   27   28 2
  51   28   51 1
  52   30   33 1
  53   30   52 1
  54   30   53 1
  55   31   32 1
  56   31   54 1
  57   31   55 1
  58   32   33 1
  59   32   56 1
  60   32   57 1
  61   33   58 1
  62   33   59 1

#	End of record

