#	Name: ASD09740189
#	Creating user name:	WinNT
#	Creation time:	15. 06. 2019 21:22

#	Modifying user name:	WinNT
#	Modification time:	15. 06. 2019 21:22

#	Program:	/corina/corina34_cracker 3.40 0067  02.08.2006

@<TRIPOS>MOLECULE
ASD09740189
  37   39    0    0    0
SMALL
NO_CHARGES


@<TRIPOS>ATOM
   1 O1            -0.0144     1.2085     0.0087 O.3     
   2 N2             0.0021    -0.0041     0.0020 N.2     
   3 C3             1.2414     1.6827    -0.0008 C.2     
   4 N4             2.0457     0.6355    -0.0141 N.2     
   5 C5             1.2344    -0.4424    -0.0121 C.2     
   6 C6             1.6617    -1.8646    -0.0234 C.ar    
   7 C7             1.6459     3.1031     0.0030 C.ar    
   8 C8             0.7203    -2.8967    -0.0200 C.ar    
   9 C9             3.0160    -2.2067    -0.0436 C.ar    
  10 C10            3.3698    -3.5410    -0.0540 C.ar    
  11 N11            2.4492    -4.4854    -0.0451 N.ar    
  12 C12            1.1605    -4.2050    -0.0313 C.ar    
  13 C13            2.9994     3.4451    -0.0086 C.ar    
  14 C14            3.3755     4.7717    -0.0055 C.ar    
  15 C15            2.4114     5.7692     0.0091 C.ar    
  16 C16            1.0582     5.4347     0.0207 C.ar    
  17 C17            0.6748     4.1074     0.0124 C.ar    
  18 O18            2.7869     7.0750     0.0125 O.3     
  19 O19            0.1155     6.4148     0.0355 O.3     
  20 C20           -1.2518     5.9997     0.0468 C.3     
  21 C21            4.1898     7.3466     0.0005 C.3     
  22 C22           -2.1588     7.2318     0.0626 C.3     
  23 H23           -0.3365    -2.6742    -0.0083 H       
  24 H24            3.7751    -1.4385    -0.0513 H       
  25 H25            4.4143    -3.8152    -0.0699 H       
  26 H26            0.4402    -5.0096    -0.0240 H       
  27 H27            3.7520     2.6705    -0.0196 H       
  28 H28            4.4229     5.0349    -0.0142 H       
  29 H29           -0.3733     3.8468     0.0214 H       
  30 H30           -1.4591     5.4074    -0.8444 H       
  31 H31           -1.4414     5.3976     0.9354 H       
  32 H32            4.6527     6.9064     0.8837 H       
  33 H33            4.6356     6.9159    -0.8962 H       
  34 H34            4.3512     8.4245     0.0047 H       
  35 H35           -1.9515     7.8241     0.9538 H       
  36 H36           -1.9692     7.8339    -0.8260 H       
  37 H37           -3.2017     6.9151     0.0712 H       
@<TRIPOS>BOND
   1    1    2 1
   2    1    3 1
   3    2    5 2
   4    3    4 2
   5    3    7 1
   6    4    5 1
   7    5    6 1
   8    6    8 ar
   9    6    9 ar
  10    7   13 ar
  11    7   17 ar
  12    8   12 ar
  13    8   23 1
  14    9   10 ar
  15    9   24 1
  16   10   11 ar
  17   10   25 1
  18   11   12 ar
  19   12   26 1
  20   13   14 ar
  21   13   27 1
  22   14   15 ar
  23   14   28 1
  24   15   16 ar
  25   15   18 1
  26   16   17 ar
  27   16   19 1
  28   17   29 1
  29   18   21 1
  30   19   20 1
  31   20   22 1
  32   20   30 1
  33   20   31 1
  34   21   32 1
  35   21   33 1
  36   21   34 1
  37   22   35 1
  38   22   36 1
  39   22   37 1

#	End of record

