#	Name: ASD01913690
#	Creating user name:	WinNT
#	Creation time:	15. 06. 2019 20:02

#	Modifying user name:	WinNT
#	Modification time:	15. 06. 2019 20:02

#	Program:	/corina/corina34_cracker 3.40 0067  02.08.2006

@<TRIPOS>MOLECULE
ASD01913690
  48   50    0    0    0
SMALL
NO_CHARGES


@<TRIPOS>ATOM
   1 C1            -1.2378     1.3455     0.0832 C.ar    
   2 C2            -0.9887    -0.1408     0.0792 C.3     
   3 O3            -0.4946    -0.5444     1.3579 O.3     
   4 C4            -0.2179    -1.8605     1.5230 C.ar    
   5 N5            -0.4119    -2.6993     0.5171 N.ar    
   6 C6            -0.1580    -3.9865     0.6282 C.ar    
   7 C7             0.3291    -4.5143     1.8244 C.ar    
   8 C8             0.5457    -3.6524     2.9098 C.ar    
   9 C9             0.2715    -2.3103     2.7457 C.ar    
  10 C10            0.6118    -5.9579     1.9461 C.2     
  11 N11            0.9634    -6.4776     3.1389 N.am    
  12 O12            0.5274    -6.6783     0.9703 O.2     
  13 C13            1.2439    -7.9104     3.2597 C.3     
  14 C14           -0.2307     2.2154    -0.2886 C.ar    
  15 C15           -0.4598     3.5811    -0.2849 C.ar    
  16 C16           -1.6979     4.0732     0.0915 C.ar    
  17 C17           -2.7037     3.2010     0.4631 C.ar    
  18 C18           -2.4756     1.8378     0.4535 C.ar    
  19 F19            0.5242     4.4327    -0.6479 F       
  20 C20           -0.3963    -4.8984    -0.5477 C.3     
  21 C21            2.1778    -8.1488     4.4480 C.3     
  22 C22            2.4708    -9.6451     4.5741 C.3     
  23 C23            1.1610   -10.4045     4.7945 C.3     
  24 C24            0.2271   -10.1661     3.6063 C.3     
  25 C25           -0.0659    -8.6697     3.4801 C.3     
  26 H26           -1.9209    -0.6648    -0.1320 H       
  27 H27           -0.2534    -0.3840    -0.6877 H       
  28 H28            0.9219    -4.0294     3.8493 H       
  29 H29            0.4268    -1.6178     3.5598 H       
  30 H30            1.0306    -5.9028     3.9174 H       
  31 H31            1.7205    -8.2656     2.3460 H       
  32 H32            0.7348     1.8305    -0.5818 H       
  33 H33           -1.8776     5.1381     0.0951 H       
  34 H34           -3.6696     3.5847     0.7568 H       
  35 H35           -3.2623     1.1570     0.7436 H       
  36 H36            0.5401    -5.0520    -1.0840 H       
  37 H37           -0.7734    -5.8576    -0.1930 H       
  38 H38           -1.1280    -4.4452    -1.2165 H       
  39 H39            3.1110    -7.6078     4.2909 H       
  40 H40            1.7012    -7.7936     5.3616 H       
  41 H41            2.9474   -10.0003     3.6604 H       
  42 H42            3.1361    -9.8150     5.4206 H       
  43 H43            1.3697   -11.4706     4.8844 H       
  44 H44            0.6844   -10.0493     5.7082 H       
  45 H45            0.7037   -10.5213     2.6926 H       
  46 H46           -0.7060   -10.7071     3.7633 H       
  47 H47           -0.5425    -8.3145     4.3938 H       
  48 H48           -0.7312    -8.4999     2.6336 H       
@<TRIPOS>BOND
   1    1    2 1
   2    1   14 ar
   3    1   18 ar
   4    2    3 1
   5    2   26 1
   6    2   27 1
   7    3    4 1
   8    4    5 ar
   9    4    9 ar
  10    5    6 ar
  11    6    7 ar
  12    6   20 1
  13    7    8 ar
  14    7   10 1
  15    8    9 ar
  16    8   28 1
  17    9   29 1
  18   10   11 am
  19   10   12 2
  20   11   13 1
  21   11   30 1
  22   13   21 1
  23   13   25 1
  24   13   31 1
  25   14   15 ar
  26   14   32 1
  27   15   16 ar
  28   15   19 1
  29   16   17 ar
  30   16   33 1
  31   17   18 ar
  32   17   34 1
  33   18   35 1
  34   20   36 1
  35   20   37 1
  36   20   38 1
  37   21   22 1
  38   21   39 1
  39   21   40 1
  40   22   23 1
  41   22   41 1
  42   22   42 1
  43   23   24 1
  44   23   43 1
  45   23   44 1
  46   24   25 1
  47   24   45 1
  48   24   46 1
  49   25   47 1
  50   25   48 1

#	End of record

