#	Name: ASD01900901
#	Creating user name:	WinNT
#	Creation time:	15. 06. 2019 19:52

#	Modifying user name:	WinNT
#	Modification time:	15. 06. 2019 19:52

#	Program:	/corina/corina34_cracker 3.40 0067  02.08.2006

@<TRIPOS>MOLECULE
ASD01900901
  46   48    0    0    0
SMALL
NO_CHARGES


@<TRIPOS>ATOM
   1 C1            -0.0276     1.2892    -0.1999 C.ar    
   2 C2             0.0009    -0.0929    -0.2700 C.ar    
   3 C3            -1.1840    -0.8078    -0.3192 C.ar    
   4 C4            -2.3948    -0.1418    -0.2984 C.ar    
   5 C5            -2.4246     1.2382    -0.2288 C.ar    
   6 C6            -1.2410     1.9548    -0.1733 C.ar    
   7 F7            -1.2703     3.3038    -0.1048 F       
   8 C8             1.2612     2.0683    -0.1464 C.3     
   9 S9             1.7967     2.4679    -1.8328 S.o2    
  10 C10            3.2962     3.3676    -1.6164 C.2     
  11 O11            2.1912     1.2901    -2.5230 O.2     
  12 O12            0.9094     3.4040    -2.4291 O.2     
  13 C13            4.5058     2.8392    -1.4194 C.2     
  14 N14            5.4759     3.7240    -1.2853 N.2     
  15 C15            5.1436     4.9750    -1.3597 C.2     
  16 S16            3.4618     5.1214    -1.6300 S.3     
  17 N17            6.0263     6.0408    -1.2424 N.am    
  18 C18            5.5713     7.3060    -1.3360 C.2     
  19 O19            4.3887     7.5141    -1.5230 O.2     
  20 C20            6.5126     8.4426    -1.2110 C.ar    
  21 N21            7.8032     8.2090    -1.0069 N.ar    
  22 C22            8.6719     9.1896    -0.8907 C.ar    
  23 C23            8.2681    10.5122    -0.9779 C.ar    
  24 C24            6.9290    10.8013    -1.1906 C.ar    
  25 C25            6.0369     9.7482    -1.3144 C.ar    
  26 C26            4.7447     1.3527    -1.3553 C.3     
  27 C27            5.5674     0.9155    -2.5689 C.3     
  28 C28            5.5075     1.0136    -0.0731 C.3     
  29 F29            1.1844    -0.7442    -0.2909 F       
  30 H30           -1.1619    -1.8862    -0.3743 H       
  31 H31           -3.3185    -0.7001    -0.3368 H       
  32 H32           -3.3713     1.7576    -0.2133 H       
  33 H33            1.1054     2.9905     0.4134 H       
  34 H34            2.0276     1.4696     0.3459 H       
  35 H35            6.9702     5.8746    -1.0932 H       
  36 H36            9.7143     8.9609    -0.7247 H       
  37 H37            8.9895    11.3100    -0.8808 H       
  38 H38            6.5895    11.8241    -1.2619 H       
  39 H39            4.9866     9.9368    -1.4807 H       
  40 H40            3.7879     0.8305    -1.3577 H       
  41 H41            5.0239     1.1570    -3.4824 H       
  42 H42            6.5242     1.4376    -2.5665 H       
  43 H43            5.7402    -0.1598    -2.5225 H       
  44 H44            4.9214     1.3250     0.7915 H       
  45 H45            5.6803    -0.0617    -0.0267 H       
  46 H46            6.4643     1.5357    -0.0707 H       
@<TRIPOS>BOND
   1    1    2 ar
   2    1    8 1
   3    1    6 ar
   4    2    3 ar
   5    2   29 1
   6    3    4 ar
   7    3   30 1
   8    4    5 ar
   9    4   31 1
  10    5    6 ar
  11    5   32 1
  12    6    7 1
  13    8    9 1
  14    8   33 1
  15    8   34 1
  16    9   10 1
  17    9   11 2
  18    9   12 2
  19   10   13 2
  20   10   16 1
  21   13   14 1
  22   13   26 1
  23   14   15 2
  24   15   16 1
  25   15   17 1
  26   17   18 am
  27   17   35 1
  28   18   19 2
  29   18   20 1
  30   20   21 ar
  31   20   25 ar
  32   21   22 ar
  33   22   23 ar
  34   22   36 1
  35   23   24 ar
  36   23   37 1
  37   24   25 ar
  38   24   38 1
  39   25   39 1
  40   26   27 1
  41   26   28 1
  42   26   40 1
  43   27   41 1
  44   27   42 1
  45   27   43 1
  46   28   44 1
  47   28   45 1
  48   28   46 1

#	End of record

