#	Name: ASD01152187
#	Creating user name:	WinNT
#	Creation time:	15. 06. 2019 19:05

#	Modifying user name:	WinNT
#	Modification time:	15. 06. 2019 19:05

#	Program:	/corina/corina34_cracker 3.40 0067  02.08.2006

@<TRIPOS>MOLECULE
ASD01152187
  58   60    0    0    0
SMALL
NO_CHARGES


@<TRIPOS>ATOM
   1 N1            -0.1112     1.4613    -0.6849 N.pl3   
   2 C2            -0.0858     0.1082    -0.8141 C.2     
   3 N3            -1.3006    -0.3692    -0.6414 N.2     
   4 C4            -2.1545     0.6284    -0.3971 C.2     
   5 C5            -1.4342     1.8163    -0.4099 C.2     
   6 N6            -3.5194     0.5004    -0.1654 N.am    
   7 N7             1.0340    -0.6445    -1.0832 N.3     
   8 C8            -1.9372     3.1155    -0.1983 C.2     
   9 O9            -1.1042     4.1776    -0.2422 O.3     
  10 O10           -3.1231     3.2806     0.0243 O.2     
  11 C11           -1.6822     5.4652    -0.0186 C.3     
  12 C12           -2.3228     5.5024     1.3703 C.3     
  13 C13           -0.5926     6.5356    -0.1065 C.3     
  14 C14           -2.7502     5.7361    -1.0802 C.3     
  15 C15            0.9804     2.3318    -0.7994 C.ar    
  16 C16            1.0264     3.2577    -1.8331 C.ar    
  17 C17            2.1038     4.1149    -1.9431 C.ar    
  18 C18            3.1362     4.0513    -1.0254 C.ar    
  19 C19            3.0933     3.1303     0.0052 C.ar    
  20 C20            2.0160     2.2743     0.1239 C.ar    
  21 C21           -4.0931    -0.7191    -0.1749 C.2     
  22 O22           -3.4170    -1.7073    -0.3861 O.2     
  23 N23           -5.4162    -0.8433     0.0497 N.am    
  24 C24            0.7027    -2.0738    -1.1558 C.3     
  25 C25            1.6879    -0.1923    -2.3185 C.3     
  26 C26           -6.0295    -2.0971    -0.0563 C.ar    
  27 C27           -5.3473    -3.2406     0.3376 C.ar    
  28 C28           -5.9549    -4.4765     0.2324 C.ar    
  29 C29           -7.2422    -4.5758    -0.2654 C.ar    
  30 C30           -7.9243    -3.4377    -0.6587 C.ar    
  31 C31           -7.3233    -2.1990    -0.5502 C.ar    
  32 Cl32          -8.0027    -6.1308    -0.3974 Cl      
  33 H33           -4.0588     1.2888     0.0031 H       
  34 H34           -1.5620     5.3093     2.1266 H       
  35 H35           -2.7638     6.4845     1.5409 H       
  36 H36           -3.0991     4.7397     1.4330 H       
  37 H37           -0.1362     6.5091    -1.0960 H       
  38 H38           -1.0335     7.5178     0.0641 H       
  39 H39            0.1682     6.3426     0.6498 H       
  40 H40           -3.5264     4.9735    -1.0176 H       
  41 H41           -3.1911     6.7182    -0.9096 H       
  42 H42           -2.2938     5.7096    -2.0697 H       
  43 H43            0.2207     3.3074    -2.5506 H       
  44 H44            2.1402     4.8353    -2.7469 H       
  45 H45            3.9780     4.7222    -1.1139 H       
  46 H46            3.9012     3.0831     0.7204 H       
  47 H47            1.9829     1.5554     0.9292 H       
  48 H48           -5.9434    -0.0638     0.2848 H       
  49 H49           -0.0274    -2.2377    -1.9484 H       
  50 H50            1.6056    -2.6457    -1.3696 H       
  51 H51            0.2839    -2.3985    -0.2033 H       
  52 H52            1.9853     0.8509    -2.2112 H       
  53 H53            2.5699    -0.8040    -2.5076 H       
  54 H54            0.9935    -0.2881    -3.1532 H       
  55 H55           -4.3424    -3.1637     0.7256 H       
  56 H56           -5.4247    -5.3661     0.5387 H       
  57 H57           -8.9289    -3.5179    -1.0469 H       
  58 H58           -7.8560    -1.3111    -0.8573 H       
@<TRIPOS>BOND
   1    1    2 1
   2    1   15 1
   3    1    5 1
   4    2    3 2
   5    2    7 1
   6    3    4 1
   7    4    5 2
   8    4    6 1
   9    5    8 1
  10    6   21 am
  11    6   33 1
  12    7   24 1
  13    7   25 1
  14    8    9 1
  15    8   10 2
  16    9   11 1
  17   11   12 1
  18   11   13 1
  19   11   14 1
  20   12   34 1
  21   12   35 1
  22   12   36 1
  23   13   37 1
  24   13   38 1
  25   13   39 1
  26   14   40 1
  27   14   41 1
  28   14   42 1
  29   15   16 ar
  30   15   20 ar
  31   16   17 ar
  32   16   43 1
  33   17   18 ar
  34   17   44 1
  35   18   19 ar
  36   18   45 1
  37   19   20 ar
  38   19   46 1
  39   20   47 1
  40   21   22 2
  41   21   23 am
  42   23   26 1
  43   23   48 1
  44   24   49 1
  45   24   50 1
  46   24   51 1
  47   25   52 1
  48   25   53 1
  49   25   54 1
  50   26   27 ar
  51   26   31 ar
  52   27   28 ar
  53   27   55 1
  54   28   29 ar
  55   28   56 1
  56   29   30 ar
  57   29   32 1
  58   30   31 ar
  59   30   57 1
  60   31   58 1

#	End of record

