#	Name: ASD06140018
#	Creating user name:	WinNT
#	Creation time:	15. 06. 2019 21:05

#	Modifying user name:	WinNT
#	Modification time:	15. 06. 2019 21:05

#	Program:	/corina/corina34_cracker 3.40 0067  02.08.2006

@<TRIPOS>MOLECULE
ASD06140018
  42   45    0    0    0
SMALL
NO_CHARGES


@<TRIPOS>ATOM
   1 C1            -1.5102     1.3553    -1.1562 C.2     
   2 N2            -1.6710     0.0190    -1.0859 N.am    
   3 S3            -1.9446     2.1958    -2.5831 S.2     
   4 C4            -2.2718    -0.6699    -2.1448 C.ar    
   5 C5            -1.8988    -0.3956    -3.4540 C.ar    
   6 C6            -3.2385    -1.6336    -1.8886 C.ar    
   7 C7            -3.8301    -2.3123    -2.9371 C.ar    
   8 C8            -3.4593    -2.0323    -4.2410 C.ar    
   9 C9            -2.4936    -1.0772    -4.4980 C.ar    
  10 Cl10          -5.0386    -3.5172    -2.6186 Cl      
  11 C11            0.2488     3.7083    -1.3564 C.3     
  12 C12            0.5351     5.2068    -1.4733 C.3     
  13 C13           -0.7691     5.9544    -1.7583 C.3     
  14 C14           -1.7565     5.7114    -0.6152 C.3     
  15 C15           -2.0427     4.2130    -0.4983 C.3     
  16 C16           -0.7386     3.4654    -0.2133 C.3     
  17 N17           -1.0127     2.0306    -0.1013 N.am    
  18 C18            1.1380     5.7146    -0.1620 C.3     
  19 C19            0.1505     5.4717     0.9811 C.3     
  20 C20           -1.1536     6.2193     0.6961 C.3     
  21 C21           -0.1357     3.9733     1.0980 C.3     
  22 H22           -1.3702    -0.4651    -0.3010 H       
  23 H23           -1.1444     0.3505    -3.6559 H       
  24 H24           -3.5273    -1.8526    -0.8712 H       
  25 H25           -3.9223    -2.5643    -5.0590 H       
  26 H26           -2.2067    -0.8607    -5.5164 H       
  27 H27           -0.1807     3.3465    -2.2906 H       
  28 H28            1.1779     3.1757    -1.1534 H       
  29 H29            1.2385     5.3798    -2.2877 H       
  30 H30           -0.5651     7.0219    -1.8416 H       
  31 H31           -1.1986     5.5926    -2.6925 H       
  32 H32           -2.6856     6.2441    -0.8182 H       
  33 H33           -2.7462     4.0399     0.3161 H       
  34 H34           -2.4723     3.8512    -1.4325 H       
  35 H35           -0.8361     1.5667     0.7320 H       
  36 H36            2.0671     5.1820     0.0410 H       
  37 H37            1.3419     6.7821    -0.2453 H       
  38 H38            0.5801     5.8335     1.9153 H       
  39 H39           -0.9497     7.2868     0.6128 H       
  40 H40           -1.8571     6.0462     1.5105 H       
  41 H41           -0.8392     3.8002     1.9124 H       
  42 H42            0.7934     3.4406     1.3011 H       
@<TRIPOS>BOND
   1    1    2 am
   2    1    3 2
   3    1   17 am
   4    2    4 1
   5    2   22 1
   6    4    5 ar
   7    4    6 ar
   8    5    9 ar
   9    5   23 1
  10    6    7 ar
  11    6   24 1
  12    7    8 ar
  13    7   10 1
  14    8    9 ar
  15    8   25 1
  16    9   26 1
  17   11   12 1
  18   11   16 1
  19   11   27 1
  20   11   28 1
  21   12   13 1
  22   12   18 1
  23   12   29 1
  24   13   14 1
  25   13   30 1
  26   13   31 1
  27   14   15 1
  28   14   20 1
  29   14   32 1
  30   15   16 1
  31   15   33 1
  32   15   34 1
  33   16   17 1
  34   16   21 1
  35   17   35 1
  36   18   19 1
  37   18   36 1
  38   18   37 1
  39   19   20 1
  40   19   21 1
  41   19   38 1
  42   20   39 1
  43   20   40 1
  44   21   41 1
  45   21   42 1

#	End of record

