#	Name: ASD08150166
#	Creating user name:	WinNT
#	Creation time:	15. 06. 2019 21:15

#	Modifying user name:	WinNT
#	Modification time:	15. 06. 2019 21:15

#	Program:	/corina/corina34_cracker 3.40 0067  02.08.2006

@<TRIPOS>MOLECULE
ASD08150166
  21   22    0    0    0
SMALL
NO_CHARGES


@<TRIPOS>ATOM
   1 O1            -0.0164     1.3592     0.0095 O.3     
   2 C2             0.0021    -0.0041     0.0020 C.2     
   3 N3             1.1503    -0.5041     0.5341 N.am    
   4 C4             1.9721     0.6306     0.8995 C.3     
   5 C5             1.3712     1.7457    -0.0017 C.3     
   6 C6             3.4599     0.6129     0.6474 C.3     
   7 C7             4.0135     1.9615     1.1429 C.3     
   8 C8             3.3208     3.1434     0.4730 C.3     
   9 C9             1.7879     3.0634     0.6153 C.3     
  10 O10           -0.9017    -0.6924    -0.4292 O.2     
  11 H11            1.3751    -1.4409     0.6472 H       
  12 H12            1.7950     0.8814     1.9453 H       
  13 H13            1.7710     1.6613    -1.0122 H       
  14 H14            3.9215    -0.2050     1.2008 H       
  15 H15            3.6555     0.4993    -0.4189 H       
  16 H16            3.8681     2.0299     2.2210 H       
  17 H17            5.0810     2.0074     0.9271 H       
  18 H18            3.6723     4.0677     0.9315 H       
  19 H19            3.5792     3.1531    -0.5858 H       
  20 H20            1.3190     3.8908     0.0826 H       
  21 H21            1.5081     3.0885     1.6685 H       
@<TRIPOS>BOND
   1    1    2 1
   2    1    5 1
   3    2    3 am
   4    2   10 2
   5    3    4 1
   6    3   11 1
   7    4    5 1
   8    4    6 1
   9    4   12 1
  10    5    9 1
  11    5   13 1
  12    6    7 1
  13    6   14 1
  14    6   15 1
  15    7    8 1
  16    7   16 1
  17    7   17 1
  18    8    9 1
  19    8   18 1
  20    8   19 1
  21    9   20 1
  22    9   21 1

#	End of record

