#	Name: ASD01914996
#	Creating user name:	WinNT
#	Creation time:	15. 06. 2019 20:04

#	Modifying user name:	WinNT
#	Modification time:	15. 06. 2019 20:04

#	Program:	/corina/corina34_cracker 3.40 0067  02.08.2006

@<TRIPOS>MOLECULE
ASD01914996
  36   38    0    0    0
SMALL
NO_CHARGES


@<TRIPOS>ATOM
   1 N1            -0.0158     1.3155     0.0093 N.ar    
   2 C2             0.0021    -0.0041     0.0020 C.ar    
   3 C3             1.1942    -0.7080    -0.0122 C.ar    
   4 C4             2.3920    -0.0099    -0.0190 C.ar    
   5 C5             2.3360     1.3839    -0.0115 C.ar    
   6 C6             3.5651     2.2036    -0.0170 C.2     
   7 N7             3.4894     3.4998     0.3478 N.am    
   8 C8             2.2294     4.0824     0.8019 C.3     
   9 C9             1.0498     3.5289     0.0064 C.3     
  10 C10            1.0942     2.0229     0.0025 C.ar    
  11 O11            4.6294     1.7167    -0.3452 O.2     
  12 C12            4.6901     4.3370     0.2873 C.3     
  13 C13            4.7846     4.9821    -1.0714 C.ar    
  14 C14            4.1958     6.2132    -1.2934 C.ar    
  15 C15            4.2810     6.8066    -2.5379 C.ar    
  16 C16            4.9582     6.1663    -3.5655 C.ar    
  17 C17            5.5483     4.9310    -3.3403 C.ar    
  18 C18            5.4650     4.3444    -2.0923 C.ar    
  19 O19            5.0432     6.7478    -4.7909 O.3     
  20 C20            5.7557     6.0311    -5.8011 C.3     
  21 Br21           1.1887    -2.5989    -0.0216 Br      
  22 H22           -0.9322    -0.5459     0.0076 H       
  23 H23            3.3390    -0.5290    -0.0294 H       
  24 H24            2.0886     3.8513     1.8578 H       
  25 H25            2.2697     5.1643     0.6758 H       
  26 H26            0.1176     3.8621     0.4623 H       
  27 H27            1.1009     3.8955    -1.0189 H       
  28 H28            4.6329     5.1102     1.0534 H       
  29 H29            5.5722     3.7200     0.4587 H       
  30 H30            3.6684     6.7111    -0.4932 H       
  31 H31            3.8206     7.7681    -2.7109 H       
  32 H32            6.0760     4.4305    -4.1386 H       
  33 H33            5.9282     3.3850    -1.9151 H       
  34 H34            6.7853     5.8758    -5.4787 H       
  35 H35            5.2776     5.0658    -5.9676 H       
  36 H36            5.7479     6.6050    -6.7278 H       
@<TRIPOS>BOND
   1    1    2 ar
   2    1   10 ar
   3    2    3 ar
   4    2   22 1
   5    3    4 ar
   6    3   21 1
   7    4    5 ar
   8    4   23 1
   9    5    6 1
  10    5   10 ar
  11    6    7 am
  12    6   11 2
  13    7    8 1
  14    7   12 1
  15    8    9 1
  16    8   24 1
  17    8   25 1
  18    9   10 1
  19    9   26 1
  20    9   27 1
  21   12   13 1
  22   12   28 1
  23   12   29 1
  24   13   14 ar
  25   13   18 ar
  26   14   15 ar
  27   14   30 1
  28   15   16 ar
  29   15   31 1
  30   16   17 ar
  31   16   19 1
  32   17   18 ar
  33   17   32 1
  34   18   33 1
  35   19   20 1
  36   20   34 1
  37   20   35 1
  38   20   36 1

#	End of record

