#	Name: ASD03330152
#	Creating user name:	WinNT
#	Creation time:	15. 06. 2019 20:36

#	Modifying user name:	WinNT
#	Modification time:	15. 06. 2019 20:36

#	Program:	/corina/corina34_cracker 3.40 0067  02.08.2006

@<TRIPOS>MOLECULE
ASD03330152
  78   81    0    0    0
SMALL
NO_CHARGES


@<TRIPOS>ATOM
   1 N1            -0.8880     4.2057    -1.0312 N.3     
   2 C2            -0.4437     3.0751    -1.8562 C.3     
   3 C3            -0.1508     3.5626    -3.2769 C.3     
   4 C4             0.9356     4.6406    -3.2276 C.3     
   5 C5             0.4678     5.7844    -2.3234 C.3     
   6 C6             0.1570     5.2325    -0.9303 C.3     
   7 N7            -3.1680     3.4696     2.4147 N.am    
   8 C8            -2.1168     4.4875     2.5474 C.3     
   9 C9            -1.7101     4.9615     1.1485 C.3     
  10 C10           -1.3103     3.7518     0.3006 C.3     
  11 C11           -2.5059     2.8066     0.1616 C.3     
  12 C12           -2.9216     2.3082     1.5493 C.3     
  13 C13           -0.1712     3.0252     0.9679 C.2     
  14 O14           -0.1903     1.8156     1.0529 O.2     
  15 N15            0.8689     3.7197     1.4704 N.am    
  16 F16            2.1158     4.0919    -2.7146 F       
  17 F17            1.1680     5.1295    -4.5176 F       
  18 C18           -4.3341     3.5962     3.0787 C.2     
  19 O19           -4.4967     4.5220     3.8519 O.2     
  20 C20           -5.4058     2.6193     2.8697 C.2     
  21 C21           -6.7263     2.9257     2.7297 C.2     
  22 C22           -7.5536     1.8381     2.5420 C.2     
  23 C23           -6.9012     0.6262     2.5284 C.2     
  24 S24           -5.1766     0.8804     2.7553 S.3     
  25 C25           -9.0208     1.9637     2.3703 C.ar    
  26 C26           -9.7777     2.6572     3.3137 C.ar    
  27 C27          -11.1424     2.7727     3.1508 C.ar    
  28 C28          -11.7624     2.1993     2.0491 C.ar    
  29 C29          -11.0118     1.5077     1.1082 C.ar    
  30 C30           -9.6459     1.3935     1.2621 C.ar    
  31 O31          -13.1074     2.3149     1.8915 O.3     
  32 C32          -13.6802     1.7009     0.7353 C.3     
  33 C33          -15.1922     1.9352     0.7296 C.3     
  34 C34          -15.8055     1.2778    -0.5084 C.3     
  35 O35          -17.2176     1.4967    -0.5137 O.3     
  36 C36           -7.5500    -0.6862     2.3453 C.ar    
  37 C37           -7.0210    -1.6106     1.4391 C.ar    
  38 C38           -7.6327    -2.8362     1.2728 C.ar    
  39 C39           -8.7687    -3.1511     2.0017 C.ar    
  40 C40           -9.2972    -2.2385     2.9013 C.ar    
  41 C41           -8.6918    -1.0127     3.0807 C.ar    
  42 F42           -9.3638    -4.3524     1.8344 F       
  43 Cl43          -5.5985    -1.2170     0.5252 Cl      
  44 H44            0.4608     2.6451    -1.4260 H       
  45 H45           -1.2269     2.3176    -1.8864 H       
  46 H46            0.1940     2.7262    -3.8849 H       
  47 H47           -1.0584     3.9803    -3.7127 H       
  48 H48            1.2545     6.5353    -2.2502 H       
  49 H49           -0.4300     6.2370    -2.7442 H       
  50 H50           -0.1900     6.0419    -0.2881 H       
  51 H51            1.0587     4.7923    -0.5045 H       
  52 H52           -2.4960     5.3316     3.1233 H       
  53 H53           -1.2525     4.0565     3.0527 H       
  54 H54           -2.5503     5.4731     0.6792 H       
  55 H55           -0.8652     5.6455     1.2276 H       
  56 H56           -3.3387     3.3385    -0.2984 H       
  57 H57           -2.2274     1.9569    -0.4617 H       
  58 H58           -2.1230     1.6994     1.9733 H       
  59 H59           -3.8319     1.7144     1.4667 H       
  60 H60            0.8518     4.6896     1.4662 H       
  61 H61            1.6345     3.2497     1.8363 H       
  62 H62           -7.0958     3.9399     2.7633 H       
  63 H63           -9.2960     3.1033     4.1713 H       
  64 H64          -11.7294     3.3094     3.8814 H       
  65 H65          -11.4972     1.0625     0.2524 H       
  66 H66           -9.0619     0.8592     0.5274 H       
  67 H67          -13.2417     2.1366    -0.1625 H       
  68 H68          -13.4786     0.6298     0.7551 H       
  69 H69          -15.6308     1.4995     1.6273 H       
  70 H70          -15.3938     3.0062     0.7098 H       
  71 H71          -15.3669     1.7135    -1.4061 H       
  72 H72          -15.6039     0.2068    -0.4886 H       
  73 H73          -17.6733     1.1065    -1.2721 H       
  74 H74           -7.2258    -3.5512     0.5731 H       
  75 H75          -10.1828    -2.4898     3.4660 H       
  76 H76           -9.1021    -0.3047     3.7856 H       
  77 Cl77           7.1158    11.5353     9.1713 Cl      
  78 H78            7.1158    12.9053     9.1713 H       
@<TRIPOS>BOND
   1    1    2 1
   2    1    6 1
   3    1   10 1
   4    2    3 1
   5    2   44 1
   6    2   45 1
   7    3    4 1
   8    3   46 1
   9    3   47 1
  10    4    5 1
  11    4   16 1
  12    4   17 1
  13    5    6 1
  14    5   48 1
  15    5   49 1
  16    6   50 1
  17    6   51 1
  18    7    8 1
  19    7   12 1
  20    7   18 am
  21    8    9 1
  22    8   52 1
  23    8   53 1
  24    9   10 1
  25    9   54 1
  26    9   55 1
  27   10   11 1
  28   10   13 1
  29   11   12 1
  30   11   56 1
  31   11   57 1
  32   12   58 1
  33   12   59 1
  34   13   14 2
  35   13   15 am
  36   15   60 1
  37   15   61 1
  38   18   19 2
  39   18   20 1
  40   20   21 2
  41   20   24 1
  42   21   22 1
  43   21   62 1
  44   22   23 2
  45   22   25 1
  46   23   24 1
  47   23   36 1
  48   25   26 ar
  49   25   30 ar
  50   26   27 ar
  51   26   63 1
  52   27   28 ar
  53   27   64 1
  54   28   29 ar
  55   28   31 1
  56   29   30 ar
  57   29   65 1
  58   30   66 1
  59   31   32 1
  60   32   33 1
  61   32   67 1
  62   32   68 1
  63   33   34 1
  64   33   69 1
  65   33   70 1
  66   34   35 1
  67   34   71 1
  68   34   72 1
  69   35   73 1
  70   36   37 ar
  71   36   41 ar
  72   37   38 ar
  73   37   43 1
  74   38   39 ar
  75   38   74 1
  76   39   40 ar
  77   39   42 1
  78   40   41 ar
  79   40   75 1
  80   41   76 1
  81   77   78 1

#	End of record

