#	Name: ASD01815983
#	Creating user name:	WinNT
#	Creation time:	15. 06. 2019 19:34

#	Modifying user name:	WinNT
#	Modification time:	15. 06. 2019 19:34

#	Program:	/corina/corina34_cracker 3.40 0067  02.08.2006

@<TRIPOS>MOLECULE
ASD01815983
  43   46    0    0    0
SMALL
NO_CHARGES


@<TRIPOS>ATOM
   1 C1            -0.7946     0.1755     0.8782 C.ar    
   2 C2            -0.4005    -1.1381     0.6810 C.ar    
   3 C3             0.9227    -1.4469     0.4425 C.ar    
   4 C4             1.8766    -0.4363     0.3981 C.ar    
   5 C5             1.4738     0.8946     0.5985 C.ar    
   6 C6             0.1365     1.1931     0.8381 C.ar    
   7 N7             3.2061    -0.7394     0.1597 N.pl3   
   8 C8             4.1704     0.1933     0.1061 C.2     
   9 C9             3.8964     1.5263     0.2861 C.2     
  10 C10            2.5022     1.9512     0.5471 C.2     
  11 C11            4.6774     2.7594     0.2911 C.2     
  12 N12            3.8010     3.7589     0.5300 N.am    
  13 N13            2.5097     3.2466     0.6787 N.2     
  14 C14            4.1386     5.1155     0.6166 C.ar    
  15 O15            5.8802     2.8658     0.1155 O.2     
  16 C16            3.5779    -2.1419    -0.0427 C.3     
  17 C17            4.2236     5.8864    -0.5350 C.ar    
  18 C18            4.5568     7.2239    -0.4465 C.ar    
  19 C19            4.8063     7.7967     0.7873 C.ar    
  20 C20            4.7230     7.0334     1.9372 C.ar    
  21 C21            4.3839     5.6949     1.8569 C.ar    
  22 F22            4.3020     4.9490     2.9803 F       
  23 C23            2.8296    -2.6979    -1.2559 C.3     
  24 C24            5.0855    -2.2401    -0.2844 C.3     
  25 C25            3.2069    -2.9525     1.2008 C.3     
  26 H26           -1.8344     0.4041     1.0595 H       
  27 H27           -1.1363    -1.9279     0.7146 H       
  28 H28            1.2180    -2.4745     0.2906 H       
  29 H29           -0.1717     2.2167     0.9916 H       
  30 H30            5.1885    -0.1133    -0.0834 H       
  31 H31            4.0297     5.4405    -1.4993 H       
  32 H32            4.6229     7.8234    -1.3424 H       
  33 H33            5.0673     8.8427     0.8528 H       
  34 H34            4.9188     7.4837     2.8992 H       
  35 H35            3.2240    -2.2444    -2.1652 H       
  36 H36            2.9635    -3.7787    -1.3013 H       
  37 H37            1.7683    -2.4668    -1.1654 H       
  38 H38            5.6186    -1.8440     0.5799 H       
  39 H39            5.3622    -3.2836    -0.4350 H       
  40 H40            5.3498    -1.6626    -1.1703 H       
  41 H41            2.1732    -2.7430     1.4760 H       
  42 H42            3.3179    -4.0157     0.9879 H       
  43 H43            3.8653    -2.6762     2.0244 H       
@<TRIPOS>BOND
   1    1    2 ar
   2    1    6 ar
   3    1   26 1
   4    2    3 ar
   5    2   27 1
   6    3    4 ar
   7    3   28 1
   8    4    5 ar
   9    4    7 1
  10    5    6 ar
  11    5   10 1
  12    6   29 1
  13    7    8 1
  14    7   16 1
  15    8    9 2
  16    8   30 1
  17    9   10 1
  18    9   11 1
  19   10   13 2
  20   11   12 am
  21   11   15 2
  22   12   13 1
  23   12   14 1
  24   14   17 ar
  25   14   21 ar
  26   16   23 1
  27   16   24 1
  28   16   25 1
  29   17   18 ar
  30   17   31 1
  31   18   19 ar
  32   18   32 1
  33   19   20 ar
  34   19   33 1
  35   20   21 ar
  36   20   34 1
  37   21   22 1
  38   23   35 1
  39   23   36 1
  40   23   37 1
  41   24   38 1
  42   24   39 1
  43   24   40 1
  44   25   41 1
  45   25   42 1
  46   25   43 1

#	End of record

