#	Name: ASD01411288
#	Creating user name:	WinNT
#	Creation time:	15. 06. 2019 19:19

#	Modifying user name:	WinNT
#	Modification time:	15. 06. 2019 19:19

#	Program:	/corina/corina34_cracker 3.40 0067  02.08.2006

@<TRIPOS>MOLECULE
ASD01411288
  69   73    0    0    0
SMALL
NO_CHARGES


@<TRIPOS>ATOM
   1 C1            -0.0170     1.4056     0.0098 C.ar    
   2 C2             0.0021    -0.0041     0.0020 C.ar    
   3 C3            -1.2020    -0.7219     0.0475 C.ar    
   4 C4            -2.3908    -0.0581     0.0667 C.ar    
   5 C5            -2.4191     1.3418     0.0400 C.ar    
   6 C6            -1.2301     2.0725     0.0198 C.ar    
   7 N7             1.2957     1.8338    -0.0005 N.pl3   
   8 C8             2.1185     0.7335    -0.0594 C.2     
   9 C9             1.3614    -0.3933    -0.0576 C.2     
  10 C10            1.7413     3.2277     0.0551 C.3     
  11 C11            1.0897     4.0163    -1.0508 C.2     
  12 N12            1.2009     5.3825    -1.0290 N.am    
  13 O13            0.4821     3.4564    -1.9387 O.2     
  14 C14            0.5556     6.0680    -2.1758 C.3     
  15 C15           -2.7205     6.8280    -0.9760 C.2     
  16 C16           -3.7065     2.0679     0.0229 C.2     
  17 O17           -4.7728     1.4843     0.0595 O.2     
  18 N18           -3.6319     3.4409    -0.0363 N.am    
  19 C19           -4.1428     6.4186    -1.2601 C.3     
  20 N20           -4.7269     5.8657    -0.0076 N.am    
  21 S21           -5.1044     4.2335    -0.0618 S.o2    
  22 C22            3.5955     0.7718    -0.1163 C.2     
  23 C23            1.8772    -1.8083    -0.1103 C.3     
  24 C24            1.4213    -2.5642     1.1394 C.3     
  25 C25            1.9450    -4.0008     1.0858 C.3     
  26 C26            1.3956    -4.6978    -0.1605 C.3     
  27 C27            1.8514    -3.9419    -1.4102 C.3     
  28 C28            1.3278    -2.5053    -1.3567 C.3     
  29 C29            4.4655     0.0034     0.5943 C.2     
  30 O30           -5.6780     3.9890    -1.3387 O.2     
  31 O31           -5.7561     3.9241     1.1625 O.2     
  32 C32           -4.9552     6.6871     1.1837 C.3     
  33 C33            4.4284     1.6424    -0.9560 C.2     
  34 C34            5.7016     1.3239    -0.6714 C.2     
  35 O35            5.7140     0.3492     0.2506 O.3     
  36 C36           -1.8131     6.7427    -1.9159 C.2     
  37 C37           -0.3879     7.1431    -1.6316 C.3     
  38 H38           -1.1863    -1.8016     0.0669 H       
  39 H39           -3.3162    -0.6138     0.1025 H       
  40 H40           -1.2563     3.1522     0.0160 H       
  41 H41            1.4657     3.6581     1.0179 H       
  42 H42            2.8243     3.2669    -0.0614 H       
  43 H43            1.6624     5.8610    -0.3227 H       
  44 H44            1.3182     6.5326    -2.8009 H       
  45 H45           -0.0120     5.3454    -2.7621 H       
  46 H46           -2.4491     7.1931     0.0042 H       
  47 H47           -2.7860     3.9149    -0.0612 H       
  48 H48           -4.7179     7.2867    -1.5824 H       
  49 H49           -4.1575     5.6571    -2.0398 H       
  50 H50            2.9664    -1.7968    -0.1509 H       
  51 H51            1.8127    -2.0677     2.0273 H       
  52 H52            0.3322    -2.5757     1.1799 H       
  53 H53            3.0341    -3.9893     1.0453 H       
  54 H54            1.6202    -4.5393     1.9762 H       
  55 H55            1.7686    -5.7212    -0.1986 H       
  56 H56            0.3064    -4.7093    -0.1199 H       
  57 H57            2.9406    -3.9304    -1.4507 H       
  58 H58            1.4600    -4.4384    -2.2981 H       
  59 H59            0.2386    -2.5169    -1.3161 H       
  60 H60            1.6525    -1.9668    -2.2470 H       
  61 H61            4.1957    -0.7559     1.3133 H       
  62 H62           -5.9547     7.1198     1.1406 H       
  63 H63           -4.8661     6.0666     2.0754 H       
  64 H64           -4.2147     7.4861     1.2215 H       
  65 H65            4.0865     2.3870    -1.6596 H       
  66 H66            6.5754     1.7777    -1.1154 H       
  67 H67           -2.0824     6.3850    -2.8991 H       
  68 H68           -0.2453     7.2418    -0.5555 H       
  69 H69           -0.1735     8.0952    -2.1169 H       
@<TRIPOS>BOND
   1    1    2 ar
   2    1    7 1
   3    1    6 ar
   4    2    3 ar
   5    2    9 1
   6    3    4 ar
   7    3   38 1
   8    4    5 ar
   9    4   39 1
  10    5    6 ar
  11    5   16 1
  12    6   40 1
  13    7    8 1
  14    7   10 1
  15    8    9 2
  16    8   22 1
  17    9   23 1
  18   10   11 1
  19   10   41 1
  20   10   42 1
  21   11   12 am
  22   11   13 2
  23   12   14 1
  24   12   43 1
  25   14   37 1
  26   14   44 1
  27   14   45 1
  28   15   19 1
  29   15   36 2
  30   15   46 1
  31   16   17 2
  32   16   18 am
  33   18   21 am
  34   18   47 1
  35   19   20 1
  36   19   48 1
  37   19   49 1
  38   20   21 am
  39   20   32 1
  40   21   30 2
  41   21   31 2
  42   22   33 1
  43   22   29 2
  44   23   24 1
  45   23   28 1
  46   23   50 1
  47   24   25 1
  48   24   51 1
  49   24   52 1
  50   25   26 1
  51   25   53 1
  52   25   54 1
  53   26   27 1
  54   26   55 1
  55   26   56 1
  56   27   28 1
  57   27   57 1
  58   27   58 1
  59   28   59 1
  60   28   60 1
  61   29   35 1
  62   29   61 1
  63   32   62 1
  64   32   63 1
  65   32   64 1
  66   33   34 2
  67   33   65 1
  68   34   35 1
  69   34   66 1
  70   36   37 1
  71   36   67 1
  72   37   68 1
  73   37   69 1

#	End of record

