#	Name: ASD01881368
#	Creating user name:	WinNT
#	Creation time:	15. 06. 2019 19:42

#	Modifying user name:	WinNT
#	Modification time:	15. 06. 2019 19:42

#	Program:	/corina/corina34_cracker 3.40 0067  02.08.2006

@<TRIPOS>MOLECULE
ASD01881368
  45   49    0    0    0
SMALL
NO_CHARGES


@<TRIPOS>ATOM
   1 C1             3.4774     1.3664    -0.0209 C.2     
   2 C2             3.4353    -0.0317    -0.0387 C.2     
   3 C3             2.2082    -0.6700     0.0464 C.2     
   4 C4             1.0377     0.1119     0.1485 C.2     
   5 C5             1.1300     1.4579     0.1616 C.2     
   6 N6             2.3382     2.0761     0.0776 N.am    
   7 O7             4.5513     1.9445    -0.0899 O.2     
   8 C8             2.5645    -4.1480     1.1041 C.3     
   9 C9             3.2221    -3.0251     0.2733 C.3     
  10 N10            2.1317    -2.0518     0.0310 N.pl3   
  11 C11            0.9410    -2.8932    -0.2314 C.3     
  12 C12            1.0605    -4.0611     0.7713 C.3     
  13 C13            1.5571    -3.7501     2.1847 C.3     
  14 C14            1.5432    -2.3087     2.6243 C.ar    
  15 C15            0.3421    -1.6360     2.7497 C.ar    
  16 C16            0.3293    -0.3138     3.1529 C.ar    
  17 C17            1.5176     0.3355     3.4312 C.ar    
  18 C18            2.7186    -0.3376     3.3067 C.ar    
  19 C19            2.7311    -1.6610     2.9077 C.ar    
  20 C20            2.4009     3.5397     0.0948 C.3     
  21 C21            2.3118     4.0708    -1.3373 C.3     
  22 C22            2.2420     5.5876    -1.5252 C.3     
  23 C23            3.5216     4.8301    -1.8858 C.3     
  24 Cl24           4.9002    -0.9545    -0.1662 Cl      
  25 H25            0.0714    -0.3656     0.2155 H       
  26 H26            0.2318     2.0525     0.2395 H       
  27 H27            3.1016    -5.0924     1.1917 H       
  28 H28            4.0298    -2.5584     0.8371 H       
  29 H29            3.5956    -3.4202    -0.6714 H       
  30 H30            0.0277    -2.3271    -0.0483 H       
  31 H31            0.9583    -3.2678    -1.2549 H       
  32 H32            0.4611    -4.9519     0.5833 H       
  33 H33            1.3423    -4.4806     2.9647 H       
  34 H34           -0.5862    -2.1432     2.5323 H       
  35 H35           -0.6090     0.2120     3.2502 H       
  36 H36            1.5076     1.3687     3.7455 H       
  37 H37            3.6469     0.1698     3.5238 H       
  38 H38            3.6691    -2.1880     2.8140 H       
  39 H39            1.5695     3.9321     0.6802 H       
  40 H40            3.3425     3.8578     0.5423 H       
  41 H41            1.7480     3.4508    -2.0344 H       
  42 H42            1.6326     5.9655    -2.3462 H       
  43 H43            2.2596     6.2071    -0.6286 H       
  44 H44            4.3809     4.9514    -1.2263 H       
  45 H45            3.7540     4.7097    -2.9439 H       
@<TRIPOS>BOND
   1    1    2 1
   2    1    6 am
   3    1    7 2
   4    2    3 2
   5    2   24 1
   6    3    4 1
   7    3   10 1
   8    4    5 2
   9    4   25 1
  10    5    6 1
  11    5   26 1
  12    6   20 1
  13    8    9 1
  14    8   13 1
  15    8   12 1
  16    8   27 1
  17    9   10 1
  18    9   28 1
  19    9   29 1
  20   10   11 1
  21   11   12 1
  22   11   30 1
  23   11   31 1
  24   12   13 1
  25   12   32 1
  26   13   14 1
  27   13   33 1
  28   14   15 ar
  29   14   19 ar
  30   15   16 ar
  31   15   34 1
  32   16   17 ar
  33   16   35 1
  34   17   18 ar
  35   17   36 1
  36   18   19 ar
  37   18   37 1
  38   19   38 1
  39   20   21 1
  40   20   39 1
  41   20   40 1
  42   21   22 1
  43   21   23 1
  44   21   41 1
  45   22   23 1
  46   22   42 1
  47   22   43 1
  48   23   44 1
  49   23   45 1

#	End of record

