#	Name: ASD01810964
#	Creating user name:	WinNT
#	Creation time:	15. 06. 2019 19:25

#	Modifying user name:	WinNT
#	Modification time:	15. 06. 2019 19:25

#	Program:	/corina/corina34_cracker 3.40 0067  02.08.2006

@<TRIPOS>MOLECULE
ASD01810964
  66   70    0    0    0
SMALL
NO_CHARGES


@<TRIPOS>ATOM
   1 C1            -7.2974     2.2211    -4.0275 C.1     
   2 C2            -6.3227     3.0150    -3.3418 C.ar    
   3 C3            -5.1528     2.4259    -2.8580 C.ar    
   4 C4            -4.2181     3.1967    -2.1983 C.ar    
   5 C5            -4.4380     4.5504    -2.0151 C.ar    
   6 C6            -5.5952     5.1405    -2.4915 C.ar    
   7 C7            -6.5352     4.3829    -3.1589 C.ar    
   8 N8            -8.0706     1.5912    -4.5715 N.1     
   9 N9            -2.4022     7.8040    -0.2290 N.am    
  10 C10           -1.8426     7.3180    -1.4976 C.3     
  11 C11           -2.9097     6.4923    -2.2231 C.3     
  12 C12           -3.4125     5.3858    -1.2930 C.3     
  13 C13           -4.0487     6.0119    -0.0499 C.3     
  14 C14           -2.9945     6.8322     0.7002 C.3     
  15 C15           -2.3679     9.1157     0.0789 C.2     
  16 C16           -3.0164     9.6020     1.3156 C.ar    
  17 C17           -3.9802    10.6109     1.2505 C.ar    
  18 C18           -4.5863    11.0658     2.4043 C.ar    
  19 C19           -4.2447    10.5275     3.6295 C.ar    
  20 C20           -3.2834     9.5185     3.7086 C.ar    
  21 C21           -2.6715     9.0510     2.5479 C.ar    
  22 O22           -1.8040     9.8989    -0.6600 O.2     
  23 C23           -4.9110    11.0311     4.8840 C.3     
  24 N24           -2.8696     8.5794     7.1162 N.2     
  25 N25           -3.4157     9.2841     6.1902 N.2     
  26 C26           -2.9184     8.9435     5.0221 C.2     
  27 N27           -1.9990     7.9561     5.2516 N.pl3   
  28 C28           -1.9994     7.7550     6.5975 C.2     
  29 C29           -1.1516     6.7629     7.3512 C.3     
  30 O30           -0.3261     6.0459     6.4312 O.3     
  31 C31            0.5220     5.0742     7.0466 C.3     
  32 C32           -4.3588    11.2043    -0.0820 C.3     
  33 C33           -5.8173    10.9313    -0.4859 C.3     
  34 C34           -5.8585    12.3747    -1.0147 C.3     
  35 C35           -4.7404    12.6921    -0.0077 C.3     
  36 H36           -4.9803     1.3693    -2.9997 H       
  37 H37           -3.3128     2.7424    -1.8236 H       
  38 H38           -5.7607     6.1976    -2.3448 H       
  39 H39           -7.4359     4.8457    -3.5345 H       
  40 H40           -1.5526     8.1661    -2.1178 H       
  41 H41           -0.9714     6.6942    -1.2975 H       
  42 H42           -3.7418     7.1385    -2.5028 H       
  43 H43           -2.4778     6.0462    -3.1189 H       
  44 H44           -2.5756     4.7549    -0.9937 H       
  45 H45           -4.8700     6.6626    -0.3501 H       
  46 H46           -4.4274     5.2239     0.6011 H       
  47 H47           -2.2172     6.1688     1.0796 H       
  48 H48           -3.4645     7.3598     1.5302 H       
  49 H49           -5.3307    11.8463     2.3487 H       
  50 H50           -1.9299     8.2679     2.6034 H       
  51 H51           -5.8077    10.4433     5.0801 H       
  52 H52           -4.2231    10.9357     5.7241 H       
  53 H53           -5.1840    12.0784     4.7550 H       
  54 H54           -1.4586     7.4949     4.5913 H       
  55 H55           -0.5230     7.2921     8.0673 H       
  56 H56           -1.7969     6.0629     7.8820 H       
  57 H57            1.1160     4.5739     6.2818 H       
  58 H58            1.1854     5.5684     7.7563 H       
  59 H59           -0.0886     4.3392     7.5711 H       
  60 H60           -3.6382    10.9757    -0.8672 H       
  61 H61           -5.9204    10.1773    -1.2662 H       
  62 H62           -6.4800    10.7578     0.3620 H       
  63 H63           -5.5480    12.4675    -2.0554 H       
  64 H64           -6.7953    12.8904    -0.8039 H       
  65 H65           -5.1087    13.0001     0.9709 H       
  66 H66           -3.9743    13.3597    -0.4019 H       
@<TRIPOS>BOND
   1    1    2 1
   2    1    8 3
   3    2    3 ar
   4    2    7 ar
   5    3    4 ar
   6    3   36 1
   7    4    5 ar
   8    4   37 1
   9    5    6 ar
  10    5   12 1
  11    6    7 ar
  12    6   38 1
  13    7   39 1
  14    9   10 1
  15    9   14 1
  16    9   15 am
  17   10   11 1
  18   10   40 1
  19   10   41 1
  20   11   12 1
  21   11   42 1
  22   11   43 1
  23   12   13 1
  24   12   44 1
  25   13   14 1
  26   13   45 1
  27   13   46 1
  28   14   47 1
  29   14   48 1
  30   15   16 1
  31   15   22 2
  32   16   17 ar
  33   16   21 ar
  34   17   18 ar
  35   17   32 1
  36   18   19 ar
  37   18   49 1
  38   19   20 ar
  39   19   23 1
  40   20   21 ar
  41   20   26 1
  42   21   50 1
  43   23   51 1
  44   23   52 1
  45   23   53 1
  46   24   25 1
  47   24   28 2
  48   25   26 2
  49   26   27 1
  50   27   28 1
  51   27   54 1
  52   28   29 1
  53   29   30 1
  54   29   55 1
  55   29   56 1
  56   30   31 1
  57   31   57 1
  58   31   58 1
  59   31   59 1
  60   32   33 1
  61   32   35 1
  62   32   60 1
  63   33   34 1
  64   33   61 1
  65   33   62 1
  66   34   35 1
  67   34   63 1
  68   34   64 1
  69   35   65 1
  70   35   66 1

#	End of record

