#	Name: ASD01230440
#	Creating user name:	WinNT
#	Creation time:	15. 06. 2019 19:14

#	Modifying user name:	WinNT
#	Modification time:	15. 06. 2019 19:14

#	Program:	/corina/corina34_cracker 3.40 0067  02.08.2006

@<TRIPOS>MOLECULE
ASD01230440
  45   47    0    0    0
SMALL
NO_CHARGES


@<TRIPOS>ATOM
   1 S1            -0.0204     1.6502     0.0111 S.o2    
   2 N2             0.0021    -0.0041     0.0020 N.am    
   3 C3             1.0256    -0.6894    -0.4563 C.2     
   4 N4             2.1713    -0.1507    -0.9688 N.pl3   
   5 C5             2.3936     1.2863    -1.1471 C.3     
   6 C6             1.7498     2.0759    -0.0035 C.3     
   7 C7             0.8928    -2.1077    -0.3981 C.2     
   8 C8             1.9093    -2.9032    -0.8069 C.2     
   9 C9             3.0927    -2.3153    -1.2868 C.2     
  10 C10            3.1981    -0.9765    -1.3566 C.2     
  11 C11           -0.3816    -2.7228     0.1202 C.3     
  12 C12           -0.3210    -2.8120     1.6464 C.3     
  13 C13           -1.5954    -3.4272     2.1646 C.ar    
  14 C14           -1.6883    -4.7977     2.3192 C.ar    
  15 C15           -2.8573    -5.3619     2.7945 C.ar    
  16 C16           -3.9332    -4.5556     3.1158 C.ar    
  17 C17           -3.8399    -3.1850     2.9621 C.ar    
  18 C18           -2.6694    -2.6204     2.4908 C.ar    
  19 C19           -5.2079    -5.1708     3.6330 C.3     
  20 C20           -5.5096    -4.6214     5.0288 C.3     
  21 C21           -6.3610    -4.8250     2.6886 C.3     
  22 O22           -0.6348     2.0061    -1.2198 O.2     
  23 O23           -0.6111     1.9928     1.2573 O.2     
  24 H24            3.4652     1.4851    -1.1626 H       
  25 H25            1.9560     1.6031    -2.0938 H       
  26 H26            1.8733     3.1452    -0.1748 H       
  27 H27            2.2071     1.7954     0.9453 H       
  28 H28            1.8121    -3.9780    -0.7645 H       
  29 H29            3.9172    -2.9389    -1.5995 H       
  30 H30            4.1135    -0.5393    -1.7270 H       
  31 H31           -1.2295    -2.1043    -0.1742 H       
  32 H32           -0.4987    -3.7226    -0.2978 H       
  33 H33            0.5269    -3.4305     1.9408 H       
  34 H34           -0.2039    -1.8122     2.0644 H       
  35 H35           -0.8477    -5.4277     2.0682 H       
  36 H36           -2.9302    -6.4328     2.9146 H       
  37 H37           -4.6806    -2.5551     3.2127 H       
  38 H38           -2.5953    -1.5493     2.3743 H       
  39 H39           -5.0936    -6.2535     3.6857 H       
  40 H40           -5.6240    -3.5387     4.9762 H       
  41 H41           -6.4317    -5.0664     5.4029 H       
  42 H42           -4.6882    -4.8678     5.7016 H       
  43 H43           -6.1460    -5.2164     1.6943 H       
  44 H44           -7.2830    -5.2700     3.0628 H       
  45 H45           -6.4753    -3.7423     2.6360 H       
@<TRIPOS>BOND
   1    1    2 am
   2    1    6 1
   3    1   22 2
   4    1   23 2
   5    2    3 2
   6    3    4 1
   7    3    7 1
   8    4    5 1
   9    4   10 1
  10    5    6 1
  11    5   24 1
  12    5   25 1
  13    6   26 1
  14    6   27 1
  15    7    8 2
  16    7   11 1
  17    8    9 1
  18    8   28 1
  19    9   10 2
  20    9   29 1
  21   10   30 1
  22   11   12 1
  23   11   31 1
  24   11   32 1
  25   12   13 1
  26   12   33 1
  27   12   34 1
  28   13   14 ar
  29   13   18 ar
  30   14   15 ar
  31   14   35 1
  32   15   16 ar
  33   15   36 1
  34   16   17 ar
  35   16   19 1
  36   17   18 ar
  37   17   37 1
  38   18   38 1
  39   19   20 1
  40   19   21 1
  41   19   39 1
  42   20   40 1
  43   20   41 1
  44   20   42 1
  45   21   43 1
  46   21   44 1
  47   21   45 1

#	End of record

