#	Name: ASD02508279
#	Creating user name:	WinNT
#	Creation time:	15. 06. 2019 20:24

#	Modifying user name:	WinNT
#	Modification time:	15. 06. 2019 20:24

#	Program:	/corina/corina34_cracker 3.40 0067  02.08.2006

@<TRIPOS>MOLECULE
ASD02508279
  43   45    0    0    0
SMALL
NO_CHARGES


@<TRIPOS>ATOM
   1 C1            -0.0419     1.2020    -0.0361 C.ar    
   2 C2            -1.1188     1.6738    -0.7864 C.ar    
   3 C3            -2.3404     1.0211    -0.7330 C.ar    
   4 C4            -2.4877    -0.0969     0.0646 C.ar    
   5 C5            -1.4198    -0.5657     0.8099 C.ar    
   6 C6            -0.1979     0.0764     0.7576 C.ar    
   7 S7            -4.0397    -0.9283     0.1340 S.o2    
   8 N8            -4.6013    -0.7894     1.6857 N.am    
   9 C9            -4.9708     0.4636     2.1862 C.ar    
  10 O10            1.0088     2.0231    -0.2796 O.3     
  11 C11            0.6312     2.9781    -1.1439 C.2     
  12 N12           -0.6625     2.7970    -1.4757 N.am    
  13 O13           -4.9312    -0.1828    -0.6837 O.2     
  14 O14           -3.7656    -2.3074    -0.0715 O.2     
  15 O15            1.3455     3.8687    -1.5625 O.2     
  16 C16           -1.4462     3.6283    -2.3927 C.3     
  17 C17           -6.1592     0.6072     2.8905 C.ar    
  18 C18           -1.5893    -1.7856     1.6784 C.3     
  19 C19           -4.1465     1.5629     1.9840 C.ar    
  20 C20           -4.5111     2.7993     2.4784 C.ar    
  21 C21           -5.7018     2.9437     3.1779 C.ar    
  22 C22           -6.5235     1.8437     3.3848 C.ar    
  23 N23           -6.0716     4.1988     3.6802 N.am    
  24 C24           -5.7745     5.3161     2.9874 C.2     
  25 C25           -6.2630     6.6563     3.4735 C.3     
  26 O26           -5.1141     5.2429     1.9727 O.2     
  27 H27           -3.1750     1.3859    -1.3134 H       
  28 H28            0.6326    -0.2934     1.3407 H       
  29 H29           -4.6740    -1.5768     2.2475 H       
  30 H30           -0.8207     4.4337    -2.7777 H       
  31 H31           -1.8032     3.0175    -3.2219 H       
  32 H32           -2.2979     4.0523    -1.8608 H       
  33 H33           -6.7985    -0.2483     3.0511 H       
  34 H34           -1.4399    -2.6828     1.0777 H       
  35 H35           -0.8565    -1.7621     2.4849 H       
  36 H36           -2.5942    -1.7942     2.1006 H       
  37 H37           -3.2201     1.4505     1.4402 H       
  38 H38           -3.8700     3.6541     2.3215 H       
  39 H39           -7.4496     1.9562     3.9289 H       
  40 H40           -6.5413     4.2634     4.5265 H       
  41 H41           -6.8346     6.5234     4.3921 H       
  42 H42           -5.4092     7.3056     3.6676 H       
  43 H43           -6.8984     7.1093     2.7125 H       
@<TRIPOS>BOND
   1    1    2 ar
   2    1   10 1
   3    1    6 ar
   4    2    3 ar
   5    2   12 1
   6    3    4 ar
   7    3   27 1
   8    4    5 ar
   9    4    7 1
  10    5    6 ar
  11    5   18 1
  12    6   28 1
  13    7    8 am
  14    7   13 2
  15    7   14 2
  16    8    9 1
  17    8   29 1
  18    9   17 ar
  19    9   19 ar
  20   10   11 1
  21   11   12 am
  22   11   15 2
  23   12   16 1
  24   16   30 1
  25   16   31 1
  26   16   32 1
  27   17   22 ar
  28   17   33 1
  29   18   34 1
  30   18   35 1
  31   18   36 1
  32   19   20 ar
  33   19   37 1
  34   20   21 ar
  35   20   38 1
  36   21   22 ar
  37   21   23 1
  38   22   39 1
  39   23   24 am
  40   23   40 1
  41   24   25 1
  42   24   26 2
  43   25   41 1
  44   25   42 1
  45   25   43 1

#	End of record

