#	Name: ASD01885050
#	Creating user name:	WinNT
#	Creation time:	15. 06. 2019 19:49

#	Modifying user name:	WinNT
#	Modification time:	15. 06. 2019 19:49

#	Program:	/corina/corina34_cracker 3.40 0067  02.08.2006

@<TRIPOS>MOLECULE
ASD01885050
  58   63    0    0    0
SMALL
NO_CHARGES


@<TRIPOS>ATOM
   1 C1             1.6551     1.3969     1.0691 C.2     
   2 C2             1.7661    -0.0015     0.9876 C.2     
   3 C3             1.2585    -0.6481    -0.1064 C.2     
   4 C4             0.6346     0.0984    -1.1298 C.2     
   5 C5             0.5391     1.4387    -1.0311 C.2     
   6 N6             1.0420     2.0928     0.0556 N.pl3   
   7 C7             1.0917     3.4055     0.4230 C.2     
   8 N8             1.6965     3.4671     1.5799 N.2     
   9 N9             2.0296     2.2884     1.9740 N.2     
  10 C10            0.5483     4.5717    -0.3618 C.3     
  11 N11            1.3569    -2.0324    -0.2099 N.pl3   
  12 C12            2.6675    -2.6813    -0.3503 C.3     
  13 C13            2.6389    -3.5884    -1.5844 C.3     
  14 C14            1.4643    -4.5627    -1.4694 C.3     
  15 C15            0.1516    -3.7777    -1.4163 C.3     
  16 C16            0.1525    -2.8732    -0.1747 C.3     
  17 C17            1.4531    -5.4932    -2.6838 C.3     
  18 O18            2.6786    -6.2316    -2.7377 O.3     
  19 C19            2.7097    -7.3050    -3.5740 C.ar    
  20 C20            1.5328    -7.8672    -4.0537 C.ar    
  21 O21            0.3220    -7.3543    -3.7025 O.3     
  22 C22            0.2952    -6.4928    -2.5593 C.3     
  23 C23           -0.9048     4.8266     0.0437 C.3     
  24 C24           -1.6022     6.0484    -0.5578 C.3     
  25 C25           -1.9802     4.6427    -1.0289 C.3     
  26 C26            3.9329    -7.8409    -3.9488 C.ar    
  27 C27            3.9805    -8.9319    -4.7957 C.ar    
  28 C28            2.8097    -9.4923    -5.2715 C.ar    
  29 C29            1.5876    -8.9632    -4.9021 C.ar    
  30 C30            2.4362    -0.7793     2.0908 C.3     
  31 F31            3.7865    -0.9660     1.7760 F       
  32 F32            2.3312    -0.0697     3.2919 F       
  33 F33            1.8130    -2.0242     2.2286 F       
  34 H34            0.2327    -0.4071    -1.9955 H       
  35 H35            0.0601     2.0004    -1.8193 H       
  36 H36            1.1449     5.4598    -0.1529 H       
  37 H37            0.5940     4.3457    -1.4271 H       
  38 H38            3.4400    -1.9220    -0.4727 H       
  39 H39            2.8766    -3.2784     0.5373 H       
  40 H40            2.5202    -2.9796    -2.4808 H       
  41 H41            3.5718    -4.1489    -1.6457 H       
  42 H42            1.5708    -5.1541    -0.5600 H       
  43 H43            0.0563    -3.1672    -2.3142 H       
  44 H44           -0.6858    -4.4730    -1.3579 H       
  45 H45            0.1558    -3.4880     0.7254 H       
  46 H46           -0.7344    -2.2395    -0.1836 H       
  47 H47            1.3369    -4.9067    -3.5952 H       
  48 H48            0.4155    -7.0833    -1.6511 H       
  49 H49           -0.6525    -5.9553    -2.5261 H       
  50 H50           -1.1622     4.5532     1.0670 H       
  51 H51           -2.3187     6.5785     0.0696 H       
  52 H52           -1.0258     6.6706    -1.2424 H       
  53 H53           -1.6525     4.3401    -2.0235 H       
  54 H54           -2.9454     4.2480    -0.7115 H       
  55 H55            4.8490    -7.4048    -3.5787 H       
  56 H56            4.9341    -9.3472    -5.0867 H       
  57 H57            2.8501   -10.3450    -5.9331 H       
  58 H58            0.6744    -9.4030    -5.2750 H       
@<TRIPOS>BOND
   1    1    2 1
   2    1    6 1
   3    1    9 2
   4    2   30 1
   5    2    3 2
   6    3    4 1
   7    3   11 1
   8    4    5 2
   9    4   34 1
  10    5    6 1
  11    5   35 1
  12    6    7 1
  13    7    8 2
  14    7   10 1
  15    8    9 1
  16   10   23 1
  17   10   36 1
  18   10   37 1
  19   11   12 1
  20   11   16 1
  21   12   13 1
  22   12   38 1
  23   12   39 1
  24   13   14 1
  25   13   40 1
  26   13   41 1
  27   14   15 1
  28   14   17 1
  29   14   42 1
  30   15   16 1
  31   15   43 1
  32   15   44 1
  33   16   45 1
  34   16   46 1
  35   17   18 1
  36   17   22 1
  37   17   47 1
  38   18   19 1
  39   19   20 ar
  40   19   26 ar
  41   20   21 1
  42   20   29 ar
  43   21   22 1
  44   22   48 1
  45   22   49 1
  46   23   24 1
  47   23   25 1
  48   23   50 1
  49   24   25 1
  50   24   51 1
  51   24   52 1
  52   25   53 1
  53   25   54 1
  54   26   27 ar
  55   26   55 1
  56   27   28 ar
  57   27   56 1
  58   28   29 ar
  59   28   57 1
  60   29   58 1
  61   30   31 1
  62   30   32 1
  63   30   33 1

#	End of record

