#	Name: ASD04590337
#	Creating user name:	WinNT
#	Creation time:	15. 06. 2019 20:50

#	Modifying user name:	WinNT
#	Modification time:	15. 06. 2019 20:50

#	Program:	/corina/corina34_cracker 3.40 0067  02.08.2006

@<TRIPOS>MOLECULE
ASD04590337
  48   52    0    0    0
SMALL
NO_CHARGES


@<TRIPOS>ATOM
   1 C1             0.1494     1.3236     1.6100 C.ar    
   2 C2             0.1588    -0.0605     1.5113 C.ar    
   3 C3             1.3160    -0.7315     1.2342 C.ar    
   4 C4             2.5060    -0.0209     1.0472 C.ar    
   5 C5             2.4964     1.3815     1.1472 C.ar    
   6 C6             1.3107     2.0453     1.4296 C.ar    
   7 N7             3.7789    -0.3938     0.7672 N.2     
   8 C8             4.5423     0.6694     0.6892 C.2     
   9 N9             3.7950     1.7937     0.9170 N.pl3   
  10 C10            5.9910     0.6561     0.3993 C.2     
  11 C11            6.7806    -0.4926     0.1609 C.2     
  12 C12            8.0522    -0.0807    -0.0638 C.2     
  13 N13            8.0732     1.2751     0.0275 N.pl3   
  14 N14            6.7738     1.7136     0.3117 N.2     
  15 N15            6.3282    -1.8220     0.1576 N.am    
  16 C16            7.1923    -2.8273    -0.0856 C.2     
  17 C17            6.7174    -4.2230    -0.0891 C.ar    
  18 O18            8.3640    -2.5831    -0.3022 O.2     
  19 C19            4.9321    -5.8098     0.1618 C.ar    
  20 C20            5.8243    -6.8474    -0.0947 C.ar    
  21 C21            7.1654    -6.5710    -0.3433 C.ar    
  22 C22            7.6133    -5.2683    -0.3414 C.ar    
  23 C23            5.3721    -4.5061     0.1653 C.ar    
  24 N24            5.3753    -8.1636    -0.0973 N.3     
  25 C25            4.0156    -8.2569    -0.6599 C.3     
  26 C26            4.0772    -9.2460    -1.8428 C.3     
  27 C27            5.3412   -10.0887    -1.5284 C.3     
  28 C28            6.2738    -9.0283    -0.8916 C.3     
  29 Cl29           9.2861    -4.9236    -0.6521 Cl      
  30 H30           -0.7746     1.8396     1.8253 H       
  31 H31           -0.7580    -0.6129     1.6554 H       
  32 H32            1.3120    -1.8089     1.1600 H       
  33 H33            1.2974     3.1224     1.5072 H       
  34 H34            4.1170     2.7087     0.9168 H       
  35 H35            8.8984    -0.7168    -0.2774 H       
  36 H36            8.8524     1.8412    -0.0878 H       
  37 H37            5.3938    -2.0168     0.3302 H       
  38 H38            3.8920    -6.0282     0.3539 H       
  39 H39            7.8549    -7.3783    -0.5419 H       
  40 H40            4.6790    -3.7022     0.3648 H       
  41 H41            3.3255    -8.6277     0.0979 H       
  42 H42            3.6920    -7.2775    -1.0120 H       
  43 H43            3.1888    -9.8771    -1.8641 H       
  44 H44            4.1947    -8.7122    -2.7859 H       
  45 H45            5.1135   -10.8846    -0.8193 H       
  46 H46            5.7772   -10.4943    -2.4413 H       
  47 H47            6.7724    -8.4468    -1.6670 H       
  48 H48            7.0082    -9.5083    -0.2447 H       
@<TRIPOS>BOND
   1    1    2 ar
   2    1    6 ar
   3    1   30 1
   4    2    3 ar
   5    2   31 1
   6    3    4 ar
   7    3   32 1
   8    4    5 ar
   9    4    7 1
  10    5    6 ar
  11    5    9 1
  12    6   33 1
  13    7    8 2
  14    8    9 1
  15    8   10 1
  16    9   34 1
  17   10   11 1
  18   10   14 2
  19   11   12 2
  20   11   15 1
  21   12   13 1
  22   12   35 1
  23   13   14 1
  24   13   36 1
  25   15   16 am
  26   15   37 1
  27   16   17 1
  28   16   18 2
  29   17   22 ar
  30   17   23 ar
  31   19   20 ar
  32   19   23 ar
  33   19   38 1
  34   20   21 ar
  35   20   24 1
  36   21   22 ar
  37   21   39 1
  38   22   29 1
  39   23   40 1
  40   24   25 1
  41   24   28 1
  42   25   26 1
  43   25   41 1
  44   25   42 1
  45   26   27 1
  46   26   43 1
  47   26   44 1
  48   27   28 1
  49   27   45 1
  50   27   46 1
  51   28   47 1
  52   28   48 1

#	End of record

