#	Name: ASD01911780
#	Creating user name:	WinNT
#	Creation time:	15. 06. 2019 19:58

#	Modifying user name:	WinNT
#	Modification time:	15. 06. 2019 19:58

#	Program:	/corina/corina34_cracker 3.40 0067  02.08.2006

@<TRIPOS>MOLECULE
ASD01911780
  37   39    0    0    0
SMALL
NO_CHARGES


@<TRIPOS>ATOM
   1 C1             0.6398     1.1618     0.7127 C.ar    
   2 C2             0.0021    -0.0041     0.0020 C.3     
   3 C3            -1.1470    -0.5266     0.8252 C.2     
   4 C4            -1.1995    -1.7192     1.4311 C.2     
   5 S5            -2.6498     0.3304     1.1620 S.3     
   6 C6            -3.2175    -1.0451     2.1052 C.2     
   7 N7            -2.2990    -1.9737     2.0994 N.2     
   8 C8            -4.4803    -1.1293     2.7750 C.1     
   9 C9            -5.5157    -1.1983     3.3242 C.1     
  10 C10           -6.7786    -1.2825     3.9940 C.ar    
  11 C11           -7.1165    -2.4320     4.7143 C.ar    
  12 C12           -8.3343    -2.5055     5.3571 C.ar    
  13 C13           -9.2209    -1.4450     5.2905 C.ar    
  14 C14           -8.8937    -0.3039     4.5791 C.ar    
  15 C15           -7.6773    -0.2133     3.9358 C.ar    
  16 C16            1.9325     1.0565     1.1911 C.ar    
  17 C17           -0.0658     2.3385     0.8811 C.ar    
  18 C18            0.5192     3.4079     1.5331 C.ar    
  19 C19            1.8097     3.3005     2.0170 C.ar    
  20 C20            2.5175     2.1259     1.8430 C.ar    
  21 C21           -0.5149     0.4521    -1.3638 C.3     
  22 O22            0.9698    -1.0402    -0.1768 O.3     
  23 H23           -0.3868    -2.4280     1.3729 H       
  24 H24           -6.4257    -3.2606     4.7668 H       
  25 H25           -8.5970    -3.3930     5.9136 H       
  26 H26          -10.1732    -1.5083     5.7960 H       
  27 H27           -9.5909     0.5195     4.5313 H       
  28 H28           -7.4231     0.6780     3.3813 H       
  29 H29            2.4852     0.1385     1.0559 H       
  30 H30           -1.0739     2.4225     0.5031 H       
  31 H31           -0.0318     4.3275     1.6641 H       
  32 H32            2.2668     4.1361     2.5260 H       
  33 H33            3.5257     2.0419     2.2210 H       
  34 H34            0.3162     0.8300    -1.9592 H       
  35 H35           -0.9762    -0.3912    -1.8779 H       
  36 H36           -1.2531     1.2424    -1.2275 H       
  37 H37            1.3413    -1.3783     0.6496 H       
@<TRIPOS>BOND
   1    1    2 1
   2    1   17 ar
   3    1   16 ar
   4    2    3 1
   5    2   21 1
   6    2   22 1
   7    3    4 2
   8    3    5 1
   9    4    7 1
  10    4   23 1
  11    5    6 1
  12    6    7 2
  13    6    8 1
  14    8    9 3
  15    9   10 1
  16   10   11 ar
  17   10   15 ar
  18   11   12 ar
  19   11   24 1
  20   12   13 ar
  21   12   25 1
  22   13   14 ar
  23   13   26 1
  24   14   15 ar
  25   14   27 1
  26   15   28 1
  27   16   20 ar
  28   16   29 1
  29   17   18 ar
  30   17   30 1
  31   18   19 ar
  32   18   31 1
  33   19   20 ar
  34   19   32 1
  35   20   33 1
  36   21   34 1
  37   21   35 1
  38   21   36 1
  39   22   37 1

#	End of record

