#	Name: ASD01881691
#	Creating user name:	WinNT
#	Creation time:	15. 06. 2019 19:43

#	Modifying user name:	WinNT
#	Modification time:	15. 06. 2019 19:43

#	Program:	/corina/corina34_cracker 3.40 0067  02.08.2006

@<TRIPOS>MOLECULE
ASD01881691
  48   51    0    0    0
SMALL
NO_CHARGES


@<TRIPOS>ATOM
   1 N1            -0.0164     1.2708     0.0390 N.pl3   
   2 N2             0.0034    -0.0172     0.0268 N.2     
   3 N3             1.2053    -0.4757     0.0065 N.2     
   4 C4             2.0743     0.5552     0.0044 C.ar    
   5 C5             1.2825     1.7190     0.0257 C.ar    
   6 C6             3.4670     0.6692    -0.0128 C.ar    
   7 C7             4.0461     1.9228    -0.0086 C.ar    
   8 C8             3.2516     3.0668     0.0125 C.ar    
   9 C9             1.8883     2.9687     0.0287 C.ar    
  10 C10           -1.2158     2.1119     0.0573 C.3     
  11 C11           -1.6203     2.3918     1.5060 C.3     
  12 C12           -2.7867     3.3537     1.7406 C.3     
  13 C13           -2.9724     1.8537     1.9785 C.3     
  14 Br14           4.5499    -0.8807    -0.0410 Br      
  15 O15            5.4007     2.0413    -0.0249 O.3     
  16 C16            5.9362     3.3662    -0.0195 C.3     
  17 N17           10.0445     3.8920     0.9564 N.am    
  18 C18            9.5650     4.6391    -0.2143 C.3     
  19 C19            8.0359     4.7133    -0.1596 C.3     
  20 C20            7.4645     3.2986    -0.0396 C.3     
  21 C21            7.9635     2.6533     1.2553 C.3     
  22 C22            9.4918     2.5558     1.2166 C.3     
  23 C23           10.9776     4.4201     1.7731 C.2     
  24 O24           11.2963     3.8363     2.7872 O.2     
  25 C25           11.6249     5.7360     1.4260 C.3     
  26 H26            3.7176     4.0411     0.0159 H       
  27 H27            1.2825     3.8627     0.0452 H       
  28 H28           -1.0068     3.0537    -0.4501 H       
  29 H29           -2.0288     1.5964    -0.4539 H       
  30 H30           -0.8036     2.4056     2.2279 H       
  31 H31           -2.7377     4.0000     2.6169 H       
  32 H32           -3.2660     3.7871     0.8627 H       
  33 H33           -3.5737     1.3004     1.2573 H       
  34 H34           -3.0455     1.5133     3.0114 H       
  35 H35            5.5846     3.9037    -0.9001 H       
  36 H36            5.6073     3.8873     0.8796 H       
  37 H37            9.9805     5.6468    -0.2000 H       
  38 H38            9.8737     4.1273    -1.1259 H       
  39 H39            7.7310     5.3033     0.7046 H       
  40 H40            7.6615     5.1808    -1.0703 H       
  41 H41            7.7904     2.7019    -0.8915 H       
  42 H42            7.6592     3.2627     2.1062 H       
  43 H43            7.5375     1.6546     1.3516 H       
  44 H44            9.7945     1.8741     0.4217 H       
  45 H45            9.8589     2.1888     2.1750 H       
  46 H46           10.9982     6.5541     1.7811 H       
  47 H47           12.6040     5.7958     1.9012 H       
  48 H48           11.7407     5.8100     0.3447 H       
@<TRIPOS>BOND
   1    1    2 1
   2    1    5 1
   3    1   10 1
   4    2    3 2
   5    3    4 1
   6    4    5 ar
   7    4    6 ar
   8    5    9 ar
   9    6    7 ar
  10    6   14 1
  11    7    8 ar
  12    7   15 1
  13    8    9 ar
  14    8   26 1
  15    9   27 1
  16   10   11 1
  17   10   28 1
  18   10   29 1
  19   11   12 1
  20   11   13 1
  21   11   30 1
  22   12   13 1
  23   12   31 1
  24   12   32 1
  25   13   33 1
  26   13   34 1
  27   15   16 1
  28   16   20 1
  29   16   35 1
  30   16   36 1
  31   17   18 1
  32   17   22 1
  33   17   23 am
  34   18   19 1
  35   18   37 1
  36   18   38 1
  37   19   20 1
  38   19   39 1
  39   19   40 1
  40   20   21 1
  41   20   41 1
  42   21   22 1
  43   21   42 1
  44   21   43 1
  45   22   44 1
  46   22   45 1
  47   23   24 2
  48   23   25 1
  49   25   46 1
  50   25   47 1
  51   25   48 1

#	End of record

