#	Name: ASD09740423
#	Creating user name:	WinNT
#	Creation time:	15. 06. 2019 21:23

#	Modifying user name:	WinNT
#	Modification time:	15. 06. 2019 21:23

#	Program:	/corina/corina34_cracker 3.40 0067  02.08.2006

@<TRIPOS>MOLECULE
ASD09740423
  71   75    0    0    0
SMALL
NO_CHARGES


@<TRIPOS>ATOM
   1 N1             0.0163     1.3556     0.1659 N.2     
   2 C2            -0.0333     0.0488     0.0945 C.2     
   3 C3             1.1952     1.9023     0.2694 C.2     
   4 S4             2.4221     0.6383     0.2814 S.3     
   5 C5             1.1598    -0.5834     0.1374 C.2     
   6 C6             1.4605     3.3529     0.3612 C.ar    
   7 C7             0.4017     4.2570     0.3408 C.ar    
   8 C8             2.7747     3.8177     0.4744 C.ar    
   9 C9             3.0278     5.1693     0.5607 C.ar    
  10 C10            1.9806     6.0797     0.5361 C.ar    
  11 C11            0.6580     5.6248     0.4277 C.ar    
  12 O12            2.2356     7.4094     0.6219 O.3     
  13 C13            3.5912     7.7962     0.8555 C.3     
  14 C14            4.3404     7.8592    -0.4770 C.3     
  15 C15            3.6211     9.1727     1.5229 C.3     
  16 C16           -0.4245     6.5618     0.4021 C.1     
  17 N17           -1.2833     7.3052     0.3817 N.1     
  18 C18            1.3701    -2.0450     0.0752 C.ar    
  19 C19            2.2970    -2.5813    -0.8240 C.ar    
  20 C20            2.4888    -3.9462    -0.8767 C.ar    
  21 C21            1.7627    -4.7798    -0.0397 C.ar    
  22 C22            0.8446    -4.2547     0.8501 C.ar    
  23 C23            0.6483    -2.8907     0.9173 C.ar    
  24 C24            3.1995    -1.8967    -1.8277 C.3     
  25 C25            4.2714    -2.9470    -2.1886 C.3     
  26 C26            3.5343    -4.2764    -1.9207 C.3     
  27 N27            2.8938    -4.7586    -3.1469 N.am    
  28 S28            3.4010    -6.1719    -3.8453 S.o2    
  29 C29            3.0000    -7.4504    -2.6225 C.3     
  30 C30            3.5348    -8.8010    -3.1027 C.3     
  31 N31            3.3200    -9.8120    -2.0588 N.3     
  32 O32            2.5796    -6.3082    -4.9968 O.2     
  33 O33            4.8088    -6.0189    -3.9635 O.2     
  34 C34            3.7319   -11.1531    -2.5269 C.3     
  35 C35            2.7733   -12.1710    -1.8816 C.3     
  36 C36            1.7827   -11.3226    -1.0516 C.3     
  37 C37            1.8790    -9.9271    -1.7177 C.3     
  38 N38            0.4195   -11.8586    -1.1625 N.3     
  39 H39           -0.9664    -0.4880     0.0075 H       
  40 H40           -0.6142     3.9001     0.2576 H       
  41 H41            3.5942     3.1145     0.4945 H       
  42 H42            4.0450     5.5216     0.6483 H       
  43 H43            4.0703     7.0658     1.5075 H       
  44 H44            5.3745     8.1542    -0.2988 H       
  45 H45            4.3192     6.8786    -0.9525 H       
  46 H46            3.8614     8.5896    -1.1290 H       
  47 H47            3.0873     9.1278     2.4722 H       
  48 H48            4.6551     9.4677     1.7011 H       
  49 H49            3.1420     9.9031     0.8709 H       
  50 H50            1.9155    -5.8481    -0.0836 H       
  51 H51            0.2838    -4.9127     1.4974 H       
  52 H52           -0.0690    -2.4800     1.6125 H       
  53 H53            2.6328    -1.6143    -2.7150 H       
  54 H54            3.6655    -1.0188    -1.3803 H       
  55 H55            4.5557    -2.8660    -3.2378 H       
  56 H56            5.1429    -2.8497    -1.5411 H       
  57 H57            4.2292    -5.0235    -1.5370 H       
  58 H58            2.1727    -4.2500    -3.5497 H       
  59 H59            3.4596    -7.1965    -1.6673 H       
  60 H60            1.9185    -7.5103    -2.5008 H       
  61 H61            3.0089    -9.0983    -4.0100 H       
  62 H62            4.6011    -8.7159    -3.3122 H       
  63 H63            3.6549   -11.2072    -3.6128 H       
  64 H64            4.7559   -11.3573    -2.2140 H       
  65 H65            2.2405   -12.7295    -2.6512 H       
  66 H66            3.3248   -12.8513    -1.2327 H       
  67 H67            2.0958   -11.2746    -0.0086 H       
  68 H68            1.5859    -9.1453    -1.0170 H       
  69 H69            1.2662    -9.8875    -2.6182 H       
  70 H70            0.3709   -12.8004    -0.8036 H       
  71 H71           -0.2440   -11.2590    -0.6952 H       
@<TRIPOS>BOND
   1    1    2 1
   2    1    3 2
   3    2    5 2
   4    2   39 1
   5    3    4 1
   6    3    6 1
   7    4    5 1
   8    5   18 1
   9    6    7 ar
  10    6    8 ar
  11    7   11 ar
  12    7   40 1
  13    8    9 ar
  14    8   41 1
  15    9   10 ar
  16    9   42 1
  17   10   11 ar
  18   10   12 1
  19   11   16 1
  20   12   13 1
  21   13   14 1
  22   13   15 1
  23   13   43 1
  24   14   44 1
  25   14   45 1
  26   14   46 1
  27   15   47 1
  28   15   48 1
  29   15   49 1
  30   16   17 3
  31   18   19 ar
  32   18   23 ar
  33   19   20 ar
  34   19   24 1
  35   20   21 ar
  36   20   26 1
  37   21   22 ar
  38   21   50 1
  39   22   23 ar
  40   22   51 1
  41   23   52 1
  42   24   25 1
  43   24   53 1
  44   24   54 1
  45   25   26 1
  46   25   55 1
  47   25   56 1
  48   26   27 1
  49   26   57 1
  50   27   28 am
  51   27   58 1
  52   28   29 1
  53   28   32 2
  54   28   33 2
  55   29   30 1
  56   29   59 1
  57   29   60 1
  58   30   31 1
  59   30   61 1
  60   30   62 1
  61   31   34 1
  62   31   37 1
  63   34   35 1
  64   34   63 1
  65   34   64 1
  66   35   36 1
  67   35   65 1
  68   35   66 1
  69   36   37 1
  70   36   38 1
  71   36   67 1
  72   37   68 1
  73   37   69 1
  74   38   70 1
  75   38   71 1

#	End of record

