#	Name: ASD02198624
#	Creating user name:	WinNT
#	Creation time:	15. 06. 2019 20:19

#	Modifying user name:	WinNT
#	Modification time:	15. 06. 2019 20:19

#	Program:	/corina/corina34_cracker 3.40 0067  02.08.2006

@<TRIPOS>MOLECULE
ASD02198624
  42   45    0    0    0
SMALL
NO_CHARGES


@<TRIPOS>ATOM
   1 C1             0.0067     1.5059     0.1349 C.2     
   2 C2             0.0729     0.1659    -0.0930 C.2     
   3 N3            -1.0542    -0.5635    -0.2628 N.pl3   
   4 N4            -2.2318    -0.0592    -0.2220 N.2     
   5 C5            -2.4385     1.2236    -0.0090 C.2     
   6 C6            -1.2793     2.1039     0.1932 C.2     
   7 C7            -0.9276    -1.9372    -0.4951 C.ar    
   8 C8            -1.5140    -2.5116    -1.6188 C.ar    
   9 C9            -1.3864    -3.8700    -1.8445 C.ar    
  10 C10           -0.6773    -4.6562    -0.9550 C.ar    
  11 C11           -0.0934    -4.0877     0.1628 C.ar    
  12 C12           -0.2118    -2.7300     0.3920 C.ar    
  13 C13           -3.8114     1.7674     0.0309 C.2     
  14 N14           -4.3729     2.4804     1.0526 N.pl3   
  15 N15           -5.6843     2.8001     0.6794 N.2     
  16 C16           -5.9150     2.3075    -0.5114 C.2     
  17 C17           -4.7648     1.6562    -0.9572 C.2     
  18 C18           -3.7486     2.8291     2.2570 C.ar    
  19 C19           -3.9176     4.1022     2.7852 C.ar    
  20 C20           -3.3011     4.4428     3.9732 C.ar    
  21 C21           -2.5159     3.5176     4.6365 C.ar    
  22 C22           -2.3453     2.2492     4.1129 C.ar    
  23 C23           -2.9641     1.9005     2.9284 C.ar    
  24 O24           -1.4164     3.3019     0.3945 O.2     
  25 O25            1.1345     2.2463     0.3066 O.3     
  26 C26            2.3823     1.5534     0.2366 C.3     
  27 F27           -2.2072    -1.7436    -2.4876 F       
  28 I28            0.9788    -5.2855     1.5061 I       
  29 H29            1.0359    -0.3209    -0.1392 H       
  30 H30           -1.8413    -4.3172    -2.7160 H       
  31 H31           -0.5793    -5.7169    -1.1332 H       
  32 H32            0.2446    -2.2875     1.2651 H       
  33 H33           -6.8416     2.3942    -1.0595 H       
  34 H34           -4.6452     1.1508    -1.9041 H       
  35 H35           -4.5301     4.8254     2.2673 H       
  36 H36           -3.4321     5.4328     4.3845 H       
  37 H37           -2.0346     3.7865     5.5652 H       
  38 H38           -1.7309     1.5291     4.6328 H       
  39 H39           -2.8308     0.9095     2.5201 H       
  40 H40            2.4155     0.7856     1.0095 H       
  41 H41            2.4845     1.0871    -0.7433 H       
  42 H42            3.1988     2.2590     0.3901 H       
@<TRIPOS>BOND
   1    1    2 2
   2    1   25 1
   3    1    6 1
   4    2    3 1
   5    2   29 1
   6    3    4 1
   7    3    7 1
   8    4    5 2
   9    5    6 1
  10    5   13 1
  11    6   24 2
  12    7    8 ar
  13    7   12 ar
  14    8    9 ar
  15    8   27 1
  16    9   10 ar
  17    9   30 1
  18   10   11 ar
  19   10   31 1
  20   11   12 ar
  21   11   28 1
  22   12   32 1
  23   13   14 1
  24   13   17 2
  25   14   15 1
  26   14   18 1
  27   15   16 2
  28   16   17 1
  29   16   33 1
  30   17   34 1
  31   18   19 ar
  32   18   23 ar
  33   19   20 ar
  34   19   35 1
  35   20   21 ar
  36   20   36 1
  37   21   22 ar
  38   21   37 1
  39   22   23 ar
  40   22   38 1
  41   23   39 1
  42   25   26 1
  43   26   40 1
  44   26   41 1
  45   26   42 1

#	End of record

